
     RDKit          3D

 13 12  0  0  0  0  0  0  0  0999 V2000
    1.4785   -1.5121    0.4351 O   0  0  0  0  0  0  0  0  0  0  0  0
    1.1172   -0.3647    0.2294 C   0  0  0  0  0  0  0  0  0  0  0  0
    2.0167    0.5632   -0.1736 O   0  0  0  0  0  0  0  0  0  0  0  0
   -0.2956    0.2035    0.4202 C   0  0  2  0  0  0  0  0  0  0  0  0
   -1.3453   -0.8216    0.0147 C   0  0  0  0  0  0  0  0  0  0  0  0
   -0.4884    1.4414   -0.3707 N   0  0  0  0  0  0  0  0  0  0  0  0
    2.8581    0.0622   -0.2244 H   0  0  0  0  0  0  0  0  0  0  0  0
   -0.4042    0.4533    1.4810 H   0  0  0  0  0  0  0  0  0  0  0  0
   -1.2580   -1.7280    0.6240 H   0  0  0  0  0  0  0  0  0  0  0  0
   -2.3577   -0.4259    0.1500 H   0  0  0  0  0  0  0  0  0  0  0  0
   -1.2308   -1.1211   -1.0335 H   0  0  0  0  0  0  0  0  0  0  0  0
    0.3232    2.0398   -0.1904 H   0  0  0  0  0  0  0  0  0  0  0  0
   -0.4136    1.2101   -1.3619 H   0  0  0  0  0  0  0  0  0  0  0  0
  1  2  2  0
  2  3  1  0
  2  4  1  0
  4  5  1  0
  4  6  1  0
  3  7  1  0
  4  8  1  1
  5  9  1  0
  5 10  1  0
  5 11  1  0
  6 12  1  0
  6 13  1  0
M  END
>  <Name>  (1) 
AA01_A_Ala

>  <canvasUID>  (1) 
1

>  <MW>  (1) 
89.0932

>  <AlogP>  (1) 
-0.7073

>  <HBA>  (1) 
0

>  <HBD>  (1) 
0

>  <RB>  (1) 
1

>  <PSA>  (1) 
63.32

>  <Estate>  (1) 
23

>  <Polar>  (1) 
8.353

>  <Chirality>  (1) 
[(3, 'S')]

$$$$

     RDKit          3D

 14 13  0  0  0  0  0  0  0  0999 V2000
   -1.7336    1.1581   -0.7183 O   0  0  0  0  0  0  0  0  0  0  0  0
   -0.6702    1.0821   -0.1203 C   0  0  0  0  0  0  0  0  0  0  0  0
    0.0607    2.1857    0.1250 O   0  0  0  0  0  0  0  0  0  0  0  0
   -0.0474   -0.1973    0.4420 C   0  0  1  0  0  0  0  0  0  0  0  0
   -1.1294   -1.0446    1.0144 N   0  0  0  0  0  0  0  0  0  0  0  0
    0.6802   -0.9662   -0.6676 C   0  0  0  0  0  0  0  0  0  0  0  0
    2.2364   -0.1739   -1.1942 S   0  0  0  0  0  0  0  0  0  0  0  0
   -0.4397    2.9122   -0.3026 H   0  0  0  0  0  0  0  0  0  0  0  0
    0.6311    0.0553    1.2646 H   0  0  0  0  0  0  0  0  0  0  0  0
   -1.8502   -1.1623    0.2954 H   0  0  0  0  0  0  0  0  0  0  0  0
   -1.5942   -0.5180    1.7563 H   0  0  0  0  0  0  0  0  0  0  0  0
    0.0435   -1.0725   -1.5531 H   0  0  0  0  0  0  0  0  0  0  0  0
    0.9400   -1.9735   -0.3234 H   0  0  0  0  0  0  0  0  0  0  0  0
    2.8729   -0.2853   -0.0183 H   0  0  0  0  0  0  0  0  0  0  0  0
  1  2  2  0
  2  3  1  0
  2  4  1  0
  4  5  1  0
  4  6  1  0
  6  7  1  0
  3  8  1  0
  4  9  1  1
  5 10  1  0
  5 11  1  0
  6 12  1  0
  6 13  1  0
  7 14  1  0
M  END
>  <Name>  (2) 
AA02_C_Cys

>  <canvasUID>  (2) 
2

>  <MW>  (2) 
121.1582

>  <AlogP>  (2) 
-0.6242

>  <HBA>  (2) 
0

>  <HBD>  (2) 
1

>  <RB>  (2) 
2

>  <PSA>  (2) 
102.12

>  <Estate>  (2) 
25.722

>  <Polar>  (2) 
11.353

>  <Chirality>  (2) 
[(3, 'R')]

$$$$

     RDKit          3D

 16 15  0  0  0  0  0  0  0  0999 V2000
   -1.0206    2.0864    1.2859 O   0  0  0  0  0  0  0  0  0  0  0  0
   -0.7910    1.4164    0.2919 C   0  0  0  0  0  0  0  0  0  0  0  0
   -0.1827    1.9672   -0.7835 O   0  0  0  0  0  0  0  0  0  0  0  0
   -1.0608   -0.0828    0.1358 C   0  0  1  0  0  0  0  0  0  0  0  0
   -1.1998   -0.4582   -1.2926 N   0  0  0  0  0  0  0  0  0  0  0  0
   -0.0049   -0.8854    0.8868 C   0  0  0  0  0  0  0  0  0  0  0  0
    1.3881   -0.5843    0.4184 C   0  0  0  0  0  0  0  0  0  0  0  0
    2.1151    0.3008    0.8350 O   0  0  0  0  0  0  0  0  0  0  0  0
    1.7945   -1.4026   -0.5705 O   0  0  0  0  0  0  0  0  0  0  0  0
   -0.0355    2.8981   -0.5121 H   0  0  0  0  0  0  0  0  0  0  0  0
   -2.0392   -0.2726    0.5922 H   0  0  0  0  0  0  0  0  0  0  0  0
   -0.5730    0.1447   -1.8358 H   0  0  0  0  0  0  0  0  0  0  0  0
   -0.8649   -1.4102   -1.4395 H   0  0  0  0  0  0  0  0  0  0  0  0
   -0.1895   -1.9633    0.8043 H   0  0  0  0  0  0  0  0  0  0  0  0
   -0.0401   -0.6565    1.9593 H   0  0  0  0  0  0  0  0  0  0  0  0
    2.7044   -1.0976   -0.7756 H   0  0  0  0  0  0  0  0  0  0  0  0
  1  2  2  0
  2  3  1  0
  2  4  1  0
  4  5  1  0
  4  6  1  0
  6  7  1  0
  7  8  2  0
  7  9  1  0
  3 10  1  0
  4 11  1  1
  5 12  1  0
  5 13  1  0
  6 14  1  0
  6 15  1  0
  9 16  1  0
M  END
>  <Name>  (3) 
AA03_D_Asp

>  <canvasUID>  (3) 
3

>  <MW>  (3) 
133.1027

>  <AlogP>  (3) 
-1.3518

>  <HBA>  (3) 
0

>  <HBD>  (3) 
0

>  <RB>  (3) 
3

>  <PSA>  (3) 
100.62

>  <Estate>  (3) 
38.167

>  <Polar>  (3) 
10.911

>  <Chirality>  (3) 
[(3, 'S')]

$$$$

     RDKit          3D

 19 18  0  0  0  0  0  0  0  0999 V2000
   -3.1383    0.6754    0.0004 O   0  0  0  0  0  0  0  0  0  0  0  0
   -1.9690    0.9943    0.1587 C   0  0  0  0  0  0  0  0  0  0  0  0
   -1.6052    2.2904    0.1182 O   0  0  0  0  0  0  0  0  0  0  0  0
   -0.7987    0.0427    0.4426 C   0  0  1  0  0  0  0  0  0  0  0  0
   -1.3057   -1.3390    0.6037 N   0  0  0  0  0  0  0  0  0  0  0  0
    0.2265    0.1039   -0.6976 C   0  0  0  0  0  0  0  0  0  0  0  0
    1.4279   -0.8282   -0.5175 C   0  0  0  0  0  0  0  0  0  0  0  0
    2.2353   -0.5744    0.7263 C   0  0  0  0  0  0  0  0  0  0  0  0
    2.8676   -1.4104    1.3511 O   0  0  0  0  0  0  0  0  0  0  0  0
    2.2982    0.7218    1.0826 O   0  0  0  0  0  0  0  0  0  0  0  0
   -2.4427    2.7709   -0.0514 H   0  0  0  0  0  0  0  0  0  0  0  0
   -0.3550    0.3488    1.3958 H   0  0  0  0  0  0  0  0  0  0  0  0
   -2.0022   -1.3364    1.3531 H   0  0  0  0  0  0  0  0  0  0  0  0
   -1.8480   -1.5805   -0.2299 H   0  0  0  0  0  0  0  0  0  0  0  0
   -0.2653   -0.1434   -1.6482 H   0  0  0  0  0  0  0  0  0  0  0  0
    0.5836    1.1355   -0.8115 H   0  0  0  0  0  0  0  0  0  0  0  0
    1.0946   -1.8716   -0.4971 H   0  0  0  0  0  0  0  0  0  0  0  0
    2.1037   -0.7168   -1.3730 H   0  0  0  0  0  0  0  0  0  0  0  0
    2.8927    0.7170    1.8625 H   0  0  0  0  0  0  0  0  0  0  0  0
  1  2  2  0
  2  3  1  0
  2  4  1  0
  4  5  1  0
  4  6  1  0
  6  7  1  0
  7  8  1  0
  8  9  2  0
  8 10  1  0
  3 11  1  0
  4 12  1  1
  5 13  1  0
  5 14  1  0
  6 15  1  0
  6 16  1  0
  7 17  1  0
  7 18  1  0
 10 19  1  0
M  END
>  <Name>  (4) 
AA04_E_Glu

>  <canvasUID>  (4) 
4

>  <MW>  (4) 
147.1293

>  <AlogP>  (4) 
-1.0306

>  <HBA>  (4) 
0

>  <HBD>  (4) 
0

>  <RB>  (4) 
4

>  <PSA>  (4) 
100.62

>  <Estate>  (4) 
39.667

>  <Polar>  (4) 
12.746

>  <Chirality>  (4) 
[(3, 'S')]

$$$$

     RDKit          3D

 23 23  0  0  0  0  0  0  0  0999 V2000
    4.0362   -0.1866   -0.2923 O   0  0  0  0  0  0  0  0  0  0  0  0
    2.9834    0.3421   -0.6178 C   0  0  0  0  0  0  0  0  0  0  0  0
    2.9725    1.6080   -1.0804 O   0  0  0  0  0  0  0  0  0  0  0  0
    1.5941   -0.3016   -0.5812 C   0  0  1  0  0  0  0  0  0  0  0  0
    1.7359   -1.7670   -0.3638 N   0  0  0  0  0  0  0  0  0  0  0  0
    0.7567    0.3571    0.5281 C   0  0  0  0  0  0  0  0  0  0  0  0
   -0.7327    0.2270    0.3053 C   0  0  0  0  0  0  0  0  0  0  0  0
   -1.4048   -0.9544    0.6439 C   0  0  0  0  0  0  0  0  0  0  0  0
   -2.7786   -1.0745    0.4287 C   0  0  0  0  0  0  0  0  0  0  0  0
   -3.4931   -0.0163   -0.1292 C   0  0  0  0  0  0  0  0  0  0  0  0
   -2.8339    1.1617   -0.4753 C   0  0  0  0  0  0  0  0  0  0  0  0
   -1.4597    1.2831   -0.2616 C   0  0  0  0  0  0  0  0  0  0  0  0
    3.9154    1.8772   -1.0663 H   0  0  0  0  0  0  0  0  0  0  0  0
    1.1391   -0.1549   -1.5681 H   0  0  0  0  0  0  0  0  0  0  0  0
    2.3128   -1.9078    0.4692 H   0  0  0  0  0  0  0  0  0  0  0  0
    2.3005   -2.1469   -1.1258 H   0  0  0  0  0  0  0  0  0  0  0  0
    1.0017    1.4240    0.6148 H   0  0  0  0  0  0  0  0  0  0  0  0
    1.0135   -0.0632    1.5105 H   0  0  0  0  0  0  0  0  0  0  0  0
   -0.8570   -1.7929    1.0692 H   0  0  0  0  0  0  0  0  0  0  0  0
   -3.2889   -1.9968    0.6929 H   0  0  0  0  0  0  0  0  0  0  0  0
   -4.5623   -0.1114   -0.2974 H   0  0  0  0  0  0  0  0  0  0  0  0
   -3.3900    1.9860   -0.9136 H   0  0  0  0  0  0  0  0  0  0  0  0
   -0.9609    2.2084   -0.5407 H   0  0  0  0  0  0  0  0  0  0  0  0
  1  2  2  0
  2  3  1  0
  2  4  1  0
  4  5  1  0
  4  6  1  0
  6  7  1  0
  7  8  2  0
  8  9  1  0
  9 10  2  0
 10 11  1  0
 11 12  2  0
 12  7  1  0
  3 13  1  0
  4 14  1  6
  5 15  1  0
  5 16  1  0
  6 17  1  0
  6 18  1  0
  8 19  1  0
  9 20  1  0
 10 21  1  0
 11 22  1  0
 12 23  1  0
M  END
>  <Name>  (5) 
AA05_F_Phe

>  <canvasUID>  (5) 
5

>  <MW>  (5) 
165.1891

>  <AlogP>  (5) 
0.8486

>  <HBA>  (5) 
0

>  <HBD>  (5) 
0

>  <RB>  (5) 
3

>  <PSA>  (5) 
63.32

>  <Estate>  (5) 
34.167

>  <Polar>  (5) 
21.277

>  <Chirality>  (5) 
[(3, 'S')]

$$$$

     RDKit          3D

 10  9  0  0  0  0  0  0  0  0999 V2000
    1.4685   -1.5572   -0.1072 O   0  0  0  0  0  0  0  0  0  0  0  0
    0.7832   -0.5507   -0.0193 C   0  0  0  0  0  0  0  0  0  0  0  0
    1.3695    0.6666    0.0118 O   0  0  0  0  0  0  0  0  0  0  0  0
   -0.7366   -0.5118    0.0902 C   0  0  0  0  0  0  0  0  0  0  0  0
   -1.2741    0.8604   -0.0135 N   0  0  0  0  0  0  0  0  0  0  0  0
    2.3269    0.4647   -0.0531 H   0  0  0  0  0  0  0  0  0  0  0  0
   -1.0227   -0.9342    1.0574 H   0  0  0  0  0  0  0  0  0  0  0  0
   -1.1588   -1.1175   -0.7165 H   0  0  0  0  0  0  0  0  0  0  0  0
   -0.7704    1.4364    0.6656 H   0  0  0  0  0  0  0  0  0  0  0  0
   -0.9856    1.2433   -0.9154 H   0  0  0  0  0  0  0  0  0  0  0  0
  1  2  2  0
  2  3  1  0
  2  4  1  0
  4  5  1  0
  3  6  1  0
  4  7  1  0
  4  8  1  0
  5  9  1  0
  5 10  1  0
M  END
>  <Name>  (6) 
AA06_G_Gly

>  <canvasUID>  (6) 
6

>  <MW>  (6) 
75.0666

>  <AlogP>  (6) 
-1.1915

>  <HBA>  (6) 
0

>  <HBD>  (6) 
0

>  <RB>  (6) 
1

>  <PSA>  (6) 
63.32

>  <Estate>  (6) 
21.167

>  <Polar>  (6) 
6.518

>  <Chirality>  (6) 
[]

$$$$

     RDKit          3D

 20 20  0  0  0  0  0  0  0  0999 V2000
    0.6239    0.6800   -2.4039 O   0  0  0  0  0  0  0  0  0  0  0  0
    1.3452    0.2730   -1.5055 C   0  0  0  0  0  0  0  0  0  0  0  0
    2.4456    0.9799   -1.1530 O   0  0  0  0  0  0  0  0  0  0  0  0
    1.1960   -1.0473   -0.7401 C   0  0  1  0  0  0  0  0  0  0  0  0
    2.0435   -1.0707    0.4858 N   0  0  0  0  0  0  0  0  0  0  0  0
   -0.2830   -1.3259   -0.4329 C   0  0  0  0  0  0  0  0  0  0  0  0
   -0.9737   -0.2609    0.3589 C   0  0  0  0  0  0  0  0  0  0  0  0
   -2.2931    0.1350    0.2961 C   0  0  0  0  0  0  0  0  0  0  0  0
   -2.4159    1.1359    1.2187 N   0  0  0  0  0  0  0  0  0  0  0  0
   -1.1942    1.3096    1.8020 C   0  0  0  0  0  0  0  0  0  0  0  0
   -0.3027    0.4836    1.3055 N   0  0  0  0  0  0  0  0  0  0  0  0
    2.3885    1.7832   -1.7103 H   0  0  0  0  0  0  0  0  0  0  0  0
    1.5809   -1.8315   -1.4022 H   0  0  0  0  0  0  0  0  0  0  0  0
    1.5476   -0.4878    1.1771 H   0  0  0  0  0  0  0  0  0  0  0  0
    2.8832   -0.5243    0.2720 H   0  0  0  0  0  0  0  0  0  0  0  0
   -0.3720   -2.2749    0.1110 H   0  0  0  0  0  0  0  0  0  0  0  0
   -0.8216   -1.4605   -1.3803 H   0  0  0  0  0  0  0  0  0  0  0  0
   -3.1250   -0.1976   -0.3086 H   0  0  0  0  0  0  0  0  0  0  0  0
   -3.2555    1.6555    1.4347 H   0  0  0  0  0  0  0  0  0  0  0  0
   -1.0177    2.0456    2.5751 H   0  0  0  0  0  0  0  0  0  0  0  0
  1  2  2  0
  2  3  1  0
  2  4  1  0
  4  5  1  0
  4  6  1  0
  6  7  1  0
  7  8  2  0
  8  9  1  0
  9 10  1  0
 10 11  2  0
 11  7  1  0
  3 12  1  0
  4 13  1  6
  5 14  1  0
  5 15  1  0
  6 16  1  0
  6 17  1  0
  8 18  1  0
  9 19  1  0
 10 20  1  0
M  END
>  <Name>  (7) 
AA07_H_His

>  <canvasUID>  (7) 
7

>  <MW>  (7) 
155.1546

>  <AlogP>  (7) 
-1.5927

>  <HBA>  (7) 
1

>  <HBD>  (7) 
1

>  <RB>  (7) 
3

>  <PSA>  (7) 
92

>  <Estate>  (7) 
33.667

>  <Polar>  (7) 
16.875

>  <Chirality>  (7) 
[(3, 'S')]

$$$$

     RDKit          3D

 22 21  0  0  0  0  0  0  0  0999 V2000
    2.6160    0.7538    1.0832 O   0  0  0  0  0  0  0  0  0  0  0  0
    2.2772    0.7070   -0.0871 C   0  0  0  0  0  0  0  0  0  0  0  0
    3.1769    1.0032   -1.0595 O   0  0  0  0  0  0  0  0  0  0  0  0
    0.8892    0.3658   -0.6747 C   0  0  1  0  0  0  0  0  0  0  0  0
    1.0914   -0.6493   -1.7362 N   0  0  0  0  0  0  0  0  0  0  0  0
   -0.1080   -0.1107    0.4194 C   0  0  1  0  0  0  0  0  0  0  0  0
   -0.5043    1.0733    1.3201 C   0  0  0  0  0  0  0  0  0  0  0  0
   -1.3738   -0.7701   -0.1815 C   0  0  0  0  0  0  0  0  0  0  0  0
   -2.3806   -1.2511    0.8563 C   0  0  0  0  0  0  0  0  0  0  0  0
    4.0023    1.1658   -0.5565 H   0  0  0  0  0  0  0  0  0  0  0  0
    0.5084    1.2834   -1.1407 H   0  0  0  0  0  0  0  0  0  0  0  0
    0.2684   -0.6750   -2.3355 H   0  0  0  0  0  0  0  0  0  0  0  0
    1.8589   -0.3220   -2.3300 H   0  0  0  0  0  0  0  0  0  0  0  0
    0.3947   -0.8570    1.0499 H   0  0  0  0  0  0  0  0  0  0  0  0
   -1.1236    1.7919    0.7721 H   0  0  0  0  0  0  0  0  0  0  0  0
   -1.0690    0.7336    2.1938 H   0  0  0  0  0  0  0  0  0  0  0  0
    0.3661    1.6120    1.7036 H   0  0  0  0  0  0  0  0  0  0  0  0
   -1.0853   -1.6458   -0.7741 H   0  0  0  0  0  0  0  0  0  0  0  0
   -1.8712   -0.0710   -0.8650 H   0  0  0  0  0  0  0  0  0  0  0  0
   -1.9018   -1.8957    1.6000 H   0  0  0  0  0  0  0  0  0  0  0  0
   -2.8589   -0.4141    1.3731 H   0  0  0  0  0  0  0  0  0  0  0  0
   -3.1732   -1.8280    0.3683 H   0  0  0  0  0  0  0  0  0  0  0  0
  1  2  2  0
  2  3  1  0
  2  4  1  0
  4  5  1  0
  4  6  1  0
  6  7  1  0
  6  8  1  0
  8  9  1  0
  3 10  1  0
  4 11  1  6
  5 12  1  0
  5 13  1  0
  6 14  1  1
  7 15  1  0
  7 16  1  0
  7 17  1  0
  8 18  1  0
  8 19  1  0
  9 20  1  0
  9 21  1  0
  9 22  1  0
M  END
>  <Name>  (8) 
AA08_I_Ile

>  <canvasUID>  (8) 
8

>  <MW>  (8) 
131.1729

>  <AlogP>  (8) 
0.5919

>  <HBA>  (8) 
0

>  <HBD>  (8) 
0

>  <RB>  (8) 
3

>  <PSA>  (8) 
63.32

>  <Estate>  (8) 
27.833

>  <Polar>  (8) 
13.858

>  <Chirality>  (8) 
[(3, 'S'), (5, 'S')]

$$$$

     RDKit          3D

 24 23  0  0  0  0  0  0  0  0999 V2000
    2.1040    1.8807    1.3689 O   0  0  0  0  0  0  0  0  0  0  0  0
    2.5190    0.9349    0.7187 C   0  0  0  0  0  0  0  0  0  0  0  0
    3.4945    0.1444    1.2223 O   0  0  0  0  0  0  0  0  0  0  0  0
    2.0165    0.4881   -0.6623 C   0  0  1  0  0  0  0  0  0  0  0  0
    3.0475   -0.3302   -1.3504 N   0  0  0  0  0  0  0  0  0  0  0  0
    0.7333   -0.3420   -0.5410 C   0  0  0  0  0  0  0  0  0  0  0  0
   -0.4719    0.4868   -0.0814 C   0  0  0  0  0  0  0  0  0  0  0  0
   -1.7516   -0.3540   -0.0708 C   0  0  0  0  0  0  0  0  0  0  0  0
   -2.9519    0.4714    0.3923 C   0  0  0  0  0  0  0  0  0  0  0  0
   -4.1692   -0.3324    0.3979 N   0  0  0  0  0  0  0  0  0  0  0  0
    3.6885    0.5435    2.0968 H   0  0  0  0  0  0  0  0  0  0  0  0
    1.8504    1.3851   -1.2686 H   0  0  0  0  0  0  0  0  0  0  0  0
    3.8890    0.2388   -1.4532 H   0  0  0  0  0  0  0  0  0  0  0  0
    3.3281   -1.0709   -0.7010 H   0  0  0  0  0  0  0  0  0  0  0  0
    0.8858   -1.1737    0.1596 H   0  0  0  0  0  0  0  0  0  0  0  0
    0.4959   -0.7862   -1.5169 H   0  0  0  0  0  0  0  0  0  0  0  0
   -0.6038    1.3455   -0.7506 H   0  0  0  0  0  0  0  0  0  0  0  0
   -0.2956    0.8818    0.9250 H   0  0  0  0  0  0  0  0  0  0  0  0
   -1.9384   -0.7477   -1.0779 H   0  0  0  0  0  0  0  0  0  0  0  0
   -1.6155   -1.2170    0.5932 H   0  0  0  0  0  0  0  0  0  0  0  0
   -3.0982    1.3325   -0.2688 H   0  0  0  0  0  0  0  0  0  0  0  0
   -2.7785    0.8602    1.4015 H   0  0  0  0  0  0  0  0  0  0  0  0
   -4.0411   -1.1428    1.0029 H   0  0  0  0  0  0  0  0  0  0  0  0
   -4.3369   -0.7049   -0.5361 H   0  0  0  0  0  0  0  0  0  0  0  0
  1  2  2  0
  2  3  1  0
  2  4  1  0
  4  5  1  0
  4  6  1  0
  6  7  1  0
  7  8  1  0
  8  9  1  0
  9 10  1  0
  3 11  1  0
  4 12  1  6
  5 13  1  0
  5 14  1  0
  6 15  1  0
  6 16  1  0
  7 17  1  0
  7 18  1  0
  8 19  1  0
  8 20  1  0
  9 21  1  0
  9 22  1  0
 10 23  1  0
 10 24  1  0
M  END
>  <Name>  (9) 
AA09_K_Lys

>  <canvasUID>  (9) 
9

>  <MW>  (9) 
146.1876

>  <AlogP>  (9) 
-0.7865

>  <HBA>  (9) 
0

>  <HBD>  (9) 
0

>  <RB>  (9) 
5

>  <PSA>  (9) 
89.34

>  <Estate>  (9) 
31

>  <Polar>  (9) 
15.209

>  <Chirality>  (9) 
[(3, 'S')]

$$$$

     RDKit          3D

 22 21  0  0  0  0  0  0  0  0999 V2000
    2.6555   -0.5138    1.6459 O   0  0  0  0  0  0  0  0  0  0  0  0
    2.0569    0.2104    0.8636 C   0  0  0  0  0  0  0  0  0  0  0  0
    1.9689    1.5335    1.1101 O   0  0  0  0  0  0  0  0  0  0  0  0
    1.4531   -0.2031   -0.4864 C   0  0  1  0  0  0  0  0  0  0  0  0
    1.3684   -1.6728   -0.5872 N   0  0  0  0  0  0  0  0  0  0  0  0
    0.0969    0.4590   -0.7828 C   0  0  0  0  0  0  0  0  0  0  0  0
   -1.0140    0.3237    0.2844 C   0  0  0  0  0  0  0  0  0  0  0  0
   -2.2206    1.1731   -0.1334 C   0  0  0  0  0  0  0  0  0  0  0  0
   -1.4699   -1.1150    0.5238 C   0  0  0  0  0  0  0  0  0  0  0  0
    2.4129    1.6347    1.9782 H   0  0  0  0  0  0  0  0  0  0  0  0
    2.1747    0.1270   -1.2446 H   0  0  0  0  0  0  0  0  0  0  0  0
    1.2925   -1.9450   -1.5649 H   0  0  0  0  0  0  0  0  0  0  0  0
    2.2375   -2.0759   -0.2303 H   0  0  0  0  0  0  0  0  0  0  0  0
   -0.2798    0.0831   -1.7442 H   0  0  0  0  0  0  0  0  0  0  0  0
    0.2811    1.5306   -0.9423 H   0  0  0  0  0  0  0  0  0  0  0  0
   -0.6492    0.7264    1.2368 H   0  0  0  0  0  0  0  0  0  0  0  0
   -1.9331    2.2218   -0.2637 H   0  0  0  0  0  0  0  0  0  0  0  0
   -3.0055    1.1380    0.6296 H   0  0  0  0  0  0  0  0  0  0  0  0
   -2.6487    0.8178   -1.0770 H   0  0  0  0  0  0  0  0  0  0  0  0
   -0.6937   -1.7005    1.0242 H   0  0  0  0  0  0  0  0  0  0  0  0
   -1.7329   -1.6120   -0.4158 H   0  0  0  0  0  0  0  0  0  0  0  0
   -2.3508   -1.1409    1.1750 H   0  0  0  0  0  0  0  0  0  0  0  0
  1  2  2  0
  2  3  1  0
  2  4  1  0
  4  5  1  0
  4  6  1  0
  6  7  1  0
  7  8  1  0
  7  9  1  0
  3 10  1  0
  4 11  1  6
  5 12  1  0
  5 13  1  0
  6 14  1  0
  6 15  1  0
  7 16  1  0
  8 17  1  0
  8 18  1  0
  8 19  1  0
  9 20  1  0
  9 21  1  0
  9 22  1  0
M  END
>  <Name>  (10) 
AA10_L_Leu

>  <canvasUID>  (10) 
10

>  <MW>  (10) 
131.1729

>  <AlogP>  (10) 
0.5244

>  <HBA>  (10) 
0

>  <HBD>  (10) 
0

>  <RB>  (10) 
3

>  <PSA>  (10) 
63.32

>  <Estate>  (10) 
27.833

>  <Polar>  (10) 
13.858

>  <Chirality>  (10) 
[(3, 'S')]

$$$$

     RDKit          3D

 20 19  0  0  0  0  0  0  0  0999 V2000
   -3.0417   -0.4075   -1.1049 O   0  0  0  0  0  0  0  0  0  0  0  0
   -2.3288   -0.1423   -0.1491 C   0  0  0  0  0  0  0  0  0  0  0  0
   -2.6335    0.8843    0.6676 O   0  0  0  0  0  0  0  0  0  0  0  0
   -1.0581   -0.8899    0.2726 C   0  0  1  0  0  0  0  0  0  0  0  0
   -1.1122   -2.2767   -0.2533 N   0  0  0  0  0  0  0  0  0  0  0  0
    0.2040   -0.2079   -0.2711 C   0  0  0  0  0  0  0  0  0  0  0  0
    0.4855    1.1290    0.4159 C   0  0  0  0  0  0  0  0  0  0  0  0
    2.0194    1.9076   -0.1949 S   0  0  0  0  0  0  0  0  0  0  0  0
    3.2443    0.8400    0.6039 C   0  0  0  0  0  0  0  0  0  0  0  0
   -3.4570    1.2579    0.2867 H   0  0  0  0  0  0  0  0  0  0  0  0
   -1.0331   -0.9556    1.3659 H   0  0  0  0  0  0  0  0  0  0  0  0
   -1.9701   -2.7182    0.0830 H   0  0  0  0  0  0  0  0  0  0  0  0
   -1.2395   -2.2247   -1.2682 H   0  0  0  0  0  0  0  0  0  0  0  0
    1.0561   -0.8819   -0.1195 H   0  0  0  0  0  0  0  0  0  0  0  0
    0.1051   -0.0504   -1.3537 H   0  0  0  0  0  0  0  0  0  0  0  0
    0.5490    1.0127    1.5028 H   0  0  0  0  0  0  0  0  0  0  0  0
   -0.3185    1.8402    0.2077 H   0  0  0  0  0  0  0  0  0  0  0  0
    3.0673    0.7921    1.6815 H   0  0  0  0  0  0  0  0  0  0  0  0
    4.2412    1.2570    0.4366 H   0  0  0  0  0  0  0  0  0  0  0  0
    3.2207   -0.1657    0.1785 H   0  0  0  0  0  0  0  0  0  0  0  0
  1  2  2  0
  2  3  1  0
  2  4  1  0
  4  5  1  0
  4  6  1  0
  6  7  1  0
  7  8  1  0
  8  9  1  0
  3 10  1  0
  4 11  1  1
  5 12  1  0
  5 13  1  0
  6 14  1  0
  6 15  1  0
  7 16  1  0
  7 17  1  0
  9 18  1  0
  9 19  1  0
  9 20  1  0
M  END
>  <Name>  (11) 
AA11_M_Met

>  <canvasUID>  (11) 
11

>  <MW>  (11) 
149.2113

>  <AlogP>  (11) 
-0.3799

>  <HBA>  (11) 
1

>  <HBD>  (11) 
0

>  <RB>  (11) 
4

>  <PSA>  (11) 
88.62

>  <Estate>  (11) 
27.833

>  <Polar>  (11) 
15.023

>  <Chirality>  (11) 
[(3, 'S')]

$$$$

     RDKit          3D

 17 16  0  0  0  0  0  0  0  0999 V2000
   -1.7071   -1.5668   -0.0544 N   0  0  0  0  0  0  0  0  0  0  0  0
   -1.7725   -0.3074   -0.5682 C   0  0  0  0  0  0  0  0  0  0  0  0
   -2.8510    0.2630   -0.6841 O   0  0  0  0  0  0  0  0  0  0  0  0
   -0.4554    0.3089   -0.9818 C   0  0  0  0  0  0  0  0  0  0  0  0
    0.3272    0.8063    0.2331 C   0  0  2  0  0  0  0  0  0  0  0  0
    1.0437    2.0624   -0.1152 N   0  0  0  0  0  0  0  0  0  0  0  0
    1.3655   -0.2320    0.6883 C   0  0  0  0  0  0  0  0  0  0  0  0
    2.5650   -0.0421    0.8255 O   0  0  0  0  0  0  0  0  0  0  0  0
    0.8452   -1.4403    0.9877 O   0  0  0  0  0  0  0  0  0  0  0  0
   -0.8426   -1.9086    0.3559 H   0  0  0  0  0  0  0  0  0  0  0  0
   -2.5721   -1.9392    0.3170 H   0  0  0  0  0  0  0  0  0  0  0  0
    0.1138   -0.4186   -1.5731 H   0  0  0  0  0  0  0  0  0  0  0  0
   -0.7061    1.1360   -1.6589 H   0  0  0  0  0  0  0  0  0  0  0  0
   -0.3267    1.0220    1.0855 H   0  0  0  0  0  0  0  0  0  0  0  0
    1.6104    2.3409    0.6901 H   0  0  0  0  0  0  0  0  0  0  0  0
    1.7308    1.8599   -0.8446 H   0  0  0  0  0  0  0  0  0  0  0  0
    1.6318   -1.9444    1.2973 H   0  0  0  0  0  0  0  0  0  0  0  0
  1  2  1  0
  2  3  2  0
  2  4  1  0
  4  5  1  0
  5  6  1  0
  5  7  1  0
  7  8  2  0
  7  9  1  0
  1 10  1  0
  1 11  1  0
  4 12  1  0
  4 13  1  0
  5 14  1  1
  6 15  1  0
  6 16  1  0
  9 17  1  0
M  END
>  <Name>  (12) 
AA12_N_Asn

>  <canvasUID>  (12) 
12

>  <MW>  (12) 
132.1179

>  <AlogP>  (12) 
-1.9854

>  <HBA>  (12) 
1

>  <HBD>  (12) 
1

>  <RB>  (12) 
3

>  <PSA>  (12) 
106.41

>  <Estate>  (12) 
35.167

>  <Polar>  (12) 
11.625

>  <Chirality>  (12) 
[(4, 'S')]

$$$$

     RDKit          3D

 17 17  0  0  0  0  0  0  0  0999 V2000
    2.3897   -1.6980    0.3188 O   0  0  0  0  0  0  0  0  0  0  0  0
    1.8950   -0.6898   -0.1627 C   0  0  0  0  0  0  0  0  0  0  0  0
    2.6982    0.2567   -0.6945 O   0  0  0  0  0  0  0  0  0  0  0  0
    0.4106   -0.3885   -0.3469 C   0  0  2  0  0  0  0  0  0  0  0  0
    0.0290    1.0705   -0.1224 C   0  0  0  0  0  0  0  0  0  0  0  0
   -1.3425    1.0296    0.5468 C   0  0  0  0  0  0  0  0  0  0  0  0
   -1.7086   -0.4423    0.6129 C   0  0  0  0  0  0  0  0  0  0  0  0
   -0.4109   -1.1005    0.6527 N   0  0  0  0  0  0  0  0  0  0  0  0
    3.5987   -0.0882   -0.5174 H   0  0  0  0  0  0  0  0  0  0  0  0
    0.1261   -0.7097   -1.3567 H   0  0  0  0  0  0  0  0  0  0  0  0
    0.7416    1.5983    0.5223 H   0  0  0  0  0  0  0  0  0  0  0  0
   -0.0181    1.6112   -1.0742 H   0  0  0  0  0  0  0  0  0  0  0  0
   -2.0860    1.6079   -0.0107 H   0  0  0  0  0  0  0  0  0  0  0  0
   -1.2728    1.4554    1.5549 H   0  0  0  0  0  0  0  0  0  0  0  0
   -2.2665   -0.7446   -0.2812 H   0  0  0  0  0  0  0  0  0  0  0  0
   -2.3122   -0.6761    1.4943 H   0  0  0  0  0  0  0  0  0  0  0  0
   -0.4713   -2.0920    0.4259 H   0  0  0  0  0  0  0  0  0  0  0  0
  1  2  2  0
  2  3  1  0
  2  4  1  0
  4  5  1  0
  5  6  1  0
  6  7  1  0
  7  8  1  0
  8  4  1  0
  3  9  1  0
  4 10  1  6
  5 11  1  0
  5 12  1  0
  6 13  1  0
  6 14  1  0
  7 15  1  0
  7 16  1  0
  8 17  1  0
M  END
>  <Name>  (13) 
AA13_P_Pro

>  <canvasUID>  (13) 
13

>  <MW>  (13) 
115.1305

>  <AlogP>  (13) 
-0.1633

>  <HBA>  (13) 
0

>  <HBD>  (13) 
0

>  <RB>  (13) 
1

>  <PSA>  (13) 
49.33

>  <Estate>  (13) 
24

>  <Polar>  (13) 
11.249

>  <Chirality>  (13) 
[(3, 'S')]

$$$$

     RDKit          3D

 20 19  0  0  0  0  0  0  0  0999 V2000
   -2.9445    0.7647    0.3832 N   0  0  0  0  0  0  0  0  0  0  0  0
   -1.7486    0.2630    0.8070 C   0  0  0  0  0  0  0  0  0  0  0  0
   -1.2222    0.6695    1.8353 O   0  0  0  0  0  0  0  0  0  0  0  0
   -1.1895   -0.8437   -0.0646 C   0  0  0  0  0  0  0  0  0  0  0  0
    0.2770   -1.1743    0.2355 C   0  0  0  0  0  0  0  0  0  0  0  0
    1.2720   -0.2861   -0.5272 C   0  0  2  0  0  0  0  0  0  0  0  0
    2.6623   -0.7278   -0.2669 N   0  0  0  0  0  0  0  0  0  0  0  0
    1.1132    1.1923   -0.1577 C   0  0  0  0  0  0  0  0  0  0  0  0
    0.3687    1.9871   -0.7131 O   0  0  0  0  0  0  0  0  0  0  0  0
    1.8327    1.5549    0.9277 O   0  0  0  0  0  0  0  0  0  0  0  0
   -3.2145    0.6962   -0.5887 H   0  0  0  0  0  0  0  0  0  0  0  0
   -3.2773    1.5768    0.8886 H   0  0  0  0  0  0  0  0  0  0  0  0
   -1.3207   -0.5888   -1.1221 H   0  0  0  0  0  0  0  0  0  0  0  0
   -1.7984   -1.7330    0.1404 H   0  0  0  0  0  0  0  0  0  0  0  0
    0.4473   -2.2167   -0.0653 H   0  0  0  0  0  0  0  0  0  0  0  0
    0.4704   -1.1257    1.3145 H   0  0  0  0  0  0  0  0  0  0  0  0
    1.1058   -0.3739   -1.6068 H   0  0  0  0  0  0  0  0  0  0  0  0
    2.6992   -1.7421   -0.1936 H   0  0  0  0  0  0  0  0  0  0  0  0
    2.9288   -0.3641    0.6537 H   0  0  0  0  0  0  0  0  0  0  0  0
    1.5384    2.4715    1.1081 H   0  0  0  0  0  0  0  0  0  0  0  0
  1  2  1  0
  2  3  2  0
  2  4  1  0
  4  5  1  0
  5  6  1  0
  6  7  1  0
  6  8  1  0
  8  9  2  0
  8 10  1  0
  1 11  1  0
  1 12  1  0
  4 13  1  0
  4 14  1  0
  5 15  1  0
  5 16  1  0
  6 17  1  6
  7 18  1  0
  7 19  1  0
 10 20  1  0
M  END
>  <Name>  (14) 
AA14_Q_Gln

>  <canvasUID>  (14) 
14

>  <MW>  (14) 
146.1445

>  <AlogP>  (14) 
-1.6642

>  <HBA>  (14) 
1

>  <HBD>  (14) 
1

>  <RB>  (14) 
4

>  <PSA>  (14) 
106.41

>  <Estate>  (14) 
36.667

>  <Polar>  (14) 
13.46

>  <Chirality>  (14) 
[(5, 'S')]

$$$$

     RDKit          3D

 26 25  0  0  0  0  0  0  0  0999 V2000
   -2.5903   -2.7100   -0.1425 O   0  0  0  0  0  0  0  0  0  0  0  0
   -2.8435   -1.5418    0.1072 C   0  0  0  0  0  0  0  0  0  0  0  0
   -3.7728   -1.2340    1.0424 O   0  0  0  0  0  0  0  0  0  0  0  0
   -2.1373   -0.3136   -0.4803 C   0  0  1  0  0  0  0  0  0  0  0  0
   -3.0886    0.8108   -0.5978 N   0  0  0  0  0  0  0  0  0  0  0  0
   -0.9246    0.0173    0.4024 C   0  0  0  0  0  0  0  0  0  0  0  0
   -0.0124    1.0957   -0.1945 C   0  0  0  0  0  0  0  0  0  0  0  0
    1.2326    1.3581    0.6574 C   0  0  0  0  0  0  0  0  0  0  0  0
    2.1475    0.2277    0.6605 N   0  0  0  0  0  0  0  0  0  0  0  0
    2.9311   -0.0622   -0.4027 C   0  0  0  0  0  0  0  0  0  0  0  0
    3.0636    0.6717   -1.4437 N   0  0  0  0  0  0  0  0  0  0  0  0
    3.6936    0.2217   -2.1076 H   0  0  0  0  0  0  0  0  0  0  0  0
    3.5782   -1.2315   -0.2320 N   0  0  0  0  0  0  0  0  0  0  0  0
   -4.1374   -2.1070    1.2967 H   0  0  0  0  0  0  0  0  0  0  0  0
   -1.8132   -0.5818   -1.4922 H   0  0  0  0  0  0  0  0  0  0  0  0
   -2.5978    1.6717   -0.8231 H   0  0  0  0  0  0  0  0  0  0  0  0
   -3.5362    0.9457    0.3111 H   0  0  0  0  0  0  0  0  0  0  0  0
   -1.2611    0.3333    1.3989 H   0  0  0  0  0  0  0  0  0  0  0  0
   -0.3483   -0.9035    0.5569 H   0  0  0  0  0  0  0  0  0  0  0  0
    0.2751    0.8093   -1.2127 H   0  0  0  0  0  0  0  0  0  0  0  0
   -0.5644    2.0390   -0.2727 H   0  0  0  0  0  0  0  0  0  0  0  0
    1.7481    2.2546    0.2930 H   0  0  0  0  0  0  0  0  0  0  0  0
    0.9363    1.5702    1.6910 H   0  0  0  0  0  0  0  0  0  0  0  0
    1.7902   -0.5906    1.1363 H   0  0  0  0  0  0  0  0  0  0  0  0
    4.3442   -1.3835   -0.8754 H   0  0  0  0  0  0  0  0  0  0  0  0
    3.8872   -1.3673    0.7235 H   0  0  0  0  0  0  0  0  0  0  0  0
  1  2  2  0
  2  3  1  0
  2  4  1  0
  4  5  1  0
  4  6  1  0
  6  7  1  0
  7  8  1  0
  8  9  1  0
  9 10  1  0
 10 11  2  0
 11 12  1  0
 10 13  1  0
  3 14  1  0
  4 15  1  6
  5 16  1  0
  5 17  1  0
  6 18  1  0
  6 19  1  0
  7 20  1  0
  7 21  1  0
  8 22  1  0
  8 23  1  0
  9 24  1  0
 13 25  1  0
 13 26  1  0
M  END
>  <Name>  (15) 
AA15_R_Arg

>  <canvasUID>  (15) 
15

>  <MW>  (15) 
174.201

>  <AlogP>  (15) 
-1.3767

>  <HBA>  (15) 
1

>  <HBD>  (15) 
1

>  <RB>  (15) 
6

>  <PSA>  (15) 
125.22

>  <Estate>  (15) 
38.667

>  <Polar>  (15) 
17.494

>  <Chirality>  (15) 
[(3, 'S')]

$$$$

     RDKit          3D

 14 13  0  0  0  0  0  0  0  0999 V2000
    1.3410   -1.6697    0.6952 O   0  0  0  0  0  0  0  0  0  0  0  0
    1.1590   -0.4773    0.5021 C   0  0  0  0  0  0  0  0  0  0  0  0
    2.2107    0.3267    0.2150 O   0  0  0  0  0  0  0  0  0  0  0  0
   -0.1721    0.2724    0.6150 C   0  0  1  0  0  0  0  0  0  0  0  0
   -0.0801    1.6402    0.0334 N   0  0  0  0  0  0  0  0  0  0  0  0
   -1.2745   -0.5318   -0.0859 C   0  0  0  0  0  0  0  0  0  0  0  0
   -1.1151   -0.4610   -1.5081 O   0  0  0  0  0  0  0  0  0  0  0  0
    2.9711   -0.2910    0.1813 H   0  0  0  0  0  0  0  0  0  0  0  0
   -0.3883    0.3659    1.6846 H   0  0  0  0  0  0  0  0  0  0  0  0
    0.8830    1.9586    0.1778 H   0  0  0  0  0  0  0  0  0  0  0  0
   -0.1564    1.5172   -0.9824 H   0  0  0  0  0  0  0  0  0  0  0  0
   -1.2583   -1.5859    0.2094 H   0  0  0  0  0  0  0  0  0  0  0  0
   -2.2576   -0.1151    0.1588 H   0  0  0  0  0  0  0  0  0  0  0  0
   -1.8623   -0.9493   -1.8965 H   0  0  0  0  0  0  0  0  0  0  0  0
  1  2  2  0
  2  3  1  0
  2  4  1  0
  4  5  1  0
  4  6  1  0
  6  7  1  0
  3  8  1  0
  4  9  1  1
  5 10  1  0
  5 11  1  0
  6 12  1  0
  6 13  1  0
  7 14  1  0
M  END
>  <Name>  (16) 
AA16_S_Ser

>  <canvasUID>  (16) 
16

>  <MW>  (16) 
105.0926

>  <AlogP>  (16) 
-1.5955

>  <HBA>  (16) 
1

>  <HBD>  (16) 
1

>  <RB>  (16) 
2

>  <PSA>  (16) 
83.55

>  <Estate>  (16) 
28.5

>  <Polar>  (16) 
8.99

>  <Chirality>  (16) 
[(3, 'S')]

$$$$

     RDKit          3D

 17 16  0  0  0  0  0  0  0  0999 V2000
    2.4113   -0.3288    0.8070 O   0  0  0  0  0  0  0  0  0  0  0  0
    1.5702    0.2216    0.1119 C   0  0  0  0  0  0  0  0  0  0  0  0
    1.7423    1.4939   -0.2913 O   0  0  0  0  0  0  0  0  0  0  0  0
    0.2760   -0.4082   -0.3978 C   0  0  1  0  0  0  0  0  0  0  0  0
    0.4276   -1.8996   -0.4449 N   0  0  0  0  0  0  0  0  0  0  0  0
   -0.9030   -0.0676    0.5337 C   0  0  1  0  0  0  0  0  0  0  0  0
   -1.3854    1.3693    0.4001 C   0  0  0  0  0  0  0  0  0  0  0  0
   -2.0093   -0.9278    0.2191 O   0  0  0  0  0  0  0  0  0  0  0  0
    2.6061    1.7595    0.0904 H   0  0  0  0  0  0  0  0  0  0  0  0
    0.0831   -0.0805   -1.4252 H   0  0  0  0  0  0  0  0  0  0  0  0
    0.8002   -2.1961    0.4644 H   0  0  0  0  0  0  0  0  0  0  0  0
    1.1833   -2.1159   -1.0995 H   0  0  0  0  0  0  0  0  0  0  0  0
   -0.6341   -0.2608    1.5792 H   0  0  0  0  0  0  0  0  0  0  0  0
   -0.6246    2.0862    0.7197 H   0  0  0  0  0  0  0  0  0  0  0  0
   -1.6677    1.5925   -0.6346 H   0  0  0  0  0  0  0  0  0  0  0  0
   -2.2820    1.5278    1.0096 H   0  0  0  0  0  0  0  0  0  0  0  0
   -1.5940   -1.7655   -0.0800 H   0  0  0  0  0  0  0  0  0  0  0  0
  1  2  2  0
  2  3  1  0
  2  4  1  0
  4  5  1  0
  4  6  1  0
  6  7  1  0
  6  8  1  0
  3  9  1  0
  4 10  1  6
  5 11  1  0
  5 12  1  0
  6 13  1  1
  7 14  1  0
  7 15  1  0
  7 16  1  0
  8 17  1  0
M  END
>  <Name>  (17) 
AA17_T_Thr

>  <canvasUID>  (17) 
17

>  <MW>  (17) 
119.1192

>  <AlogP>  (17) 
-1.218

>  <HBA>  (17) 
1

>  <HBD>  (17) 
1

>  <RB>  (17) 
2

>  <PSA>  (17) 
83.55

>  <Estate>  (17) 
30.333

>  <Polar>  (17) 
10.825

>  <Chirality>  (17) 
[(3, 'S'), (5, 'R')]

$$$$

     RDKit          3D

 19 18  0  0  0  0  0  0  0  0999 V2000
    2.5963    0.5472    1.0990 O   0  0  0  0  0  0  0  0  0  0  0  0
    1.9128    0.1104    0.1846 C   0  0  0  0  0  0  0  0  0  0  0  0
    2.3090    0.2643   -1.0938 O   0  0  0  0  0  0  0  0  0  0  0  0
    0.5963   -0.6686    0.3252 C   0  0  1  0  0  0  0  0  0  0  0  0
    0.3130   -0.9268    1.7576 N   0  0  0  0  0  0  0  0  0  0  0  0
   -0.5724    0.0500   -0.3884 C   0  0  0  0  0  0  0  0  0  0  0  0
   -0.9167    1.4123    0.2248 C   0  0  0  0  0  0  0  0  0  0  0  0
   -1.8258   -0.8307   -0.4296 C   0  0  0  0  0  0  0  0  0  0  0  0
    3.1546    0.7556   -1.0242 H   0  0  0  0  0  0  0  0  0  0  0  0
    0.7649   -1.6454   -0.1450 H   0  0  0  0  0  0  0  0  0  0  0  0
    0.2978   -0.0292    2.2471 H   0  0  0  0  0  0  0  0  0  0  0  0
    1.1222   -1.4070    2.1576 H   0  0  0  0  0  0  0  0  0  0  0  0
   -0.2747    0.2334   -1.4294 H   0  0  0  0  0  0  0  0  0  0  0  0
   -0.0426    2.0706    0.2476 H   0  0  0  0  0  0  0  0  0  0  0  0
   -1.6888    1.9135   -0.3694 H   0  0  0  0  0  0  0  0  0  0  0  0
   -1.2997    1.3152    1.2458 H   0  0  0  0  0  0  0  0  0  0  0  0
   -1.6057   -1.7985   -0.8924 H   0  0  0  0  0  0  0  0  0  0  0  0
   -2.6138   -0.3517   -1.0209 H   0  0  0  0  0  0  0  0  0  0  0  0
   -2.2265   -1.0146    0.5727 H   0  0  0  0  0  0  0  0  0  0  0  0
  1  2  2  0
  2  3  1  0
  2  4  1  0
  4  5  1  0
  4  6  1  0
  6  7  1  0
  6  8  1  0
  3  9  1  0
  4 10  1  6
  5 11  1  0
  5 12  1  0
  6 13  1  0
  7 14  1  0
  7 15  1  0
  7 16  1  0
  8 17  1  0
  8 18  1  0
  8 19  1  0
M  END
>  <Name>  (18) 
AA18_V_Val

>  <canvasUID>  (18) 
18

>  <MW>  (18) 
117.1463

>  <AlogP>  (18) 
0.1357

>  <HBA>  (18) 
0

>  <HBD>  (18) 
0

>  <RB>  (18) 
2

>  <PSA>  (18) 
63.32

>  <Estate>  (18) 
26.333

>  <Polar>  (18) 
12.023

>  <Chirality>  (18) 
[(3, 'S')]

$$$$

     RDKit          3D

 27 28  0  0  0  0  0  0  0  0999 V2000
    1.5316    0.3752    2.3190 O   0  0  0  0  0  0  0  0  0  0  0  0
    2.2006    0.0939    1.3359 C   0  0  0  0  0  0  0  0  0  0  0  0
    2.9645   -1.0242    1.3436 O   0  0  0  0  0  0  0  0  0  0  0  0
    2.3768    0.9528    0.0783 C   0  0  1  0  0  0  0  0  0  0  0  0
    3.0557    0.2047   -1.0111 N   0  0  0  0  0  0  0  0  0  0  0  0
    1.0448    1.5805   -0.3648 C   0  0  0  0  0  0  0  0  0  0  0  0
   -0.0081    0.6106   -0.8229 C   0  0  0  0  0  0  0  0  0  0  0  0
   -0.0930    0.0318   -2.0751 C   0  0  0  0  0  0  0  0  0  0  0  0
   -1.1883   -0.7854   -2.1034 N   0  0  0  0  0  0  0  0  0  0  0  0
   -1.8448   -0.7430   -0.8968 C   0  0  0  0  0  0  0  0  0  0  0  0
   -1.1290    0.1253   -0.0710 C   0  0  0  0  0  0  0  0  0  0  0  0
   -3.0072   -1.4038   -0.4803 C   0  0  0  0  0  0  0  0  0  0  0  0
   -3.4551   -1.1698    0.8226 C   0  0  0  0  0  0  0  0  0  0  0  0
   -2.7656   -0.3095    1.6724 C   0  0  0  0  0  0  0  0  0  0  0  0
   -1.6053    0.3428    1.2388 C   0  0  0  0  0  0  0  0  0  0  0  0
    2.7097   -1.4664    2.1798 H   0  0  0  0  0  0  0  0  0  0  0  0
    3.0603    1.7572    0.3792 H   0  0  0  0  0  0  0  0  0  0  0  0
    3.5516    0.8568   -1.6129 H   0  0  0  0  0  0  0  0  0  0  0  0
    3.7528   -0.4066   -0.5797 H   0  0  0  0  0  0  0  0  0  0  0  0
    0.6391    2.1849    0.4568 H   0  0  0  0  0  0  0  0  0  0  0  0
    1.2402    2.2882   -1.1821 H   0  0  0  0  0  0  0  0  0  0  0  0
    0.5491    0.1237   -2.9410 H   0  0  0  0  0  0  0  0  0  0  0  0
   -1.4793   -1.3413   -2.8947 H   0  0  0  0  0  0  0  0  0  0  0  0
   -3.5458   -2.0749   -1.1410 H   0  0  0  0  0  0  0  0  0  0  0  0
   -4.3543   -1.6680    1.1770 H   0  0  0  0  0  0  0  0  0  0  0  0
   -3.1266   -0.1417    2.6838 H   0  0  0  0  0  0  0  0  0  0  0  0
   -1.0742    1.0060    1.9157 H   0  0  0  0  0  0  0  0  0  0  0  0
  1  2  2  0
  2  3  1  0
  2  4  1  0
  4  5  1  0
  4  6  1  0
  6  7  1  0
  7  8  2  0
  8  9  1  0
  9 10  1  0
 10 11  2  0
 10 12  1  0
 12 13  2  0
 13 14  1  0
 14 15  2  0
 11  7  1  0
 15 11  1  0
  3 16  1  0
  4 17  1  1
  5 18  1  0
  5 19  1  0
  6 20  1  0
  6 21  1  0
  8 22  1  0
  9 23  1  0
 12 24  1  0
 13 25  1  0
 14 26  1  0
 15 27  1  0
M  END
>  <Name>  (19) 
AA19_W_Trp

>  <canvasUID>  (19) 
19

>  <MW>  (19) 
204.2252

>  <AlogP>  (19) 
0.6263

>  <HBA>  (19) 
0

>  <HBD>  (19) 
1

>  <RB>  (19) 
3

>  <PSA>  (19) 
79.11

>  <Estate>  (19) 
40.001

>  <Polar>  (19) 
26.486

>  <Chirality>  (19) 
[(3, 'S')]

$$$$

     RDKit          3D

 24 24  0  0  0  0  0  0  0  0999 V2000
    2.4761   -1.9101    1.4109 O   0  0  0  0  0  0  0  0  0  0  0  0
    2.2872   -1.2336    0.4102 C   0  0  0  0  0  0  0  0  0  0  0  0
    1.9917   -1.8333   -0.7646 O   0  0  0  0  0  0  0  0  0  0  0  0
    2.2916    0.2978    0.3526 C   0  0  1  0  0  0  0  0  0  0  0  0
    2.3438    0.7914   -1.0454 N   0  0  0  0  0  0  0  0  0  0  0  0
    1.1191    0.8670    1.1734 C   0  0  0  0  0  0  0  0  0  0  0  0
   -0.2615    0.5414    0.6466 C   0  0  0  0  0  0  0  0  0  0  0  0
   -0.9034    1.4007   -0.2566 C   0  0  0  0  0  0  0  0  0  0  0  0
   -2.1717    1.0893   -0.7489 C   0  0  0  0  0  0  0  0  0  0  0  0
   -2.8034   -0.0776   -0.3383 C   0  0  0  0  0  0  0  0  0  0  0  0
   -4.0417   -0.3413   -0.8440 O   0  0  0  0  0  0  0  0  0  0  0  0
   -2.1884   -0.9412    0.5609 C   0  0  0  0  0  0  0  0  0  0  0  0
   -0.9187   -0.6301    1.0532 C   0  0  0  0  0  0  0  0  0  0  0  0
    2.0340   -2.7900   -0.5629 H   0  0  0  0  0  0  0  0  0  0  0  0
    3.2307    0.6161    0.8208 H   0  0  0  0  0  0  0  0  0  0  0  0
    1.9758    1.7383   -1.0908 H   0  0  0  0  0  0  0  0  0  0  0  0
    1.7035    0.2095   -1.5950 H   0  0  0  0  0  0  0  0  0  0  0  0
    1.1889    0.5070    2.2090 H   0  0  0  0  0  0  0  0  0  0  0  0
    1.2211    1.9585    1.2424 H   0  0  0  0  0  0  0  0  0  0  0  0
   -0.4257    2.3216   -0.5817 H   0  0  0  0  0  0  0  0  0  0  0  0
   -2.6667    1.7566   -1.4487 H   0  0  0  0  0  0  0  0  0  0  0  0
   -4.3598   -1.1758   -0.4628 H   0  0  0  0  0  0  0  0  0  0  0  0
   -2.6762   -1.8530    0.8903 H   0  0  0  0  0  0  0  0  0  0  0  0
   -0.4465   -1.3093    1.7612 H   0  0  0  0  0  0  0  0  0  0  0  0
  1  2  2  0
  2  3  1  0
  2  4  1  0
  4  5  1  0
  4  6  1  0
  6  7  1  0
  7  8  2  0
  8  9  1  0
  9 10  2  0
 10 11  1  0
 10 12  1  0
 12 13  2  0
 13  7  1  0
  3 14  1  0
  4 15  1  1
  5 16  1  0
  5 17  1  0
  6 18  1  0
  6 19  1  0
  8 20  1  0
  9 21  1  0
 11 22  1  0
 12 23  1  0
 13 24  1  0
M  END
>  <Name>  (20) 
AA20_Y_Tyr

>  <canvasUID>  (20) 
20

>  <MW>  (20) 
181.1885

>  <AlogP>  (20) 
0.5812

>  <HBA>  (20) 
1

>  <HBD>  (20) 
1

>  <RB>  (20) 
3

>  <PSA>  (20) 
83.55

>  <Estate>  (20) 
39.834

>  <Polar>  (20) 
21.914

>  <Chirality>  (20) 
[(3, 'S')]

$$$$

     RDKit          3D

 36 37  0  0  0  0  0  0  0  0999 V2000
    6.3846    0.3672    0.9852 C   0  0  0  0  0  0  0  0  0  0  0  0
    5.4250    0.7999   -0.0925 C   0  0  0  0  0  0  0  0  0  0  0  0
    5.8240    1.3780   -1.1016 O   0  0  0  0  0  0  0  0  0  0  0  0
    3.9688    0.5149    0.0779 C   0  0  0  0  0  0  0  0  0  0  0  0
    3.0824    0.9515   -0.9164 C   0  0  0  0  0  0  0  0  0  0  0  0
    3.4681   -0.1670    1.1901 C   0  0  0  0  0  0  0  0  0  0  0  0
    2.0952   -0.4101    1.3035 C   0  0  0  0  0  0  0  0  0  0  0  0
    1.2003    0.0200    0.3105 C   0  0  0  0  0  0  0  0  0  0  0  0
    1.7021    0.7123   -0.8108 C   0  0  0  0  0  0  0  0  0  0  0  0
   -0.1844   -0.2190    0.4127 C   0  0  0  0  0  0  0  0  0  0  0  0
   -1.0796    0.1857   -0.5851 C   0  0  0  0  0  0  0  0  0  0  0  0
   -0.5642    0.9092   -1.6660 C   0  0  0  0  0  0  0  0  0  0  0  0
    0.8063    1.1575   -1.7899 C   0  0  0  0  0  0  0  0  0  0  0  0
   -2.4637    0.0296   -0.4861 N   0  0  0  0  0  0  0  0  0  0  0  0
   -3.0188   -1.0651    0.3194 C   0  0  0  0  0  0  0  0  0  0  0  0
   -4.5156   -1.2609   -0.0085 C   0  0  2  0  0  0  0  0  0  0  0  0
   -4.7423   -1.2386   -1.4843 N   0  0  0  0  0  0  0  0  0  0  0  0
   -5.3839   -0.2013    0.6760 C   0  0  0  0  0  0  0  0  0  0  0  0
   -6.3001    0.4271    0.1641 O   0  0  0  0  0  0  0  0  0  0  0  0
   -5.1477   -0.0787    1.9983 O   0  0  0  0  0  0  0  0  0  0  0  0
    7.3975    0.6776    0.7099 H   0  0  0  0  0  0  0  0  0  0  0  0
    6.1315    0.8471    1.9341 H   0  0  0  0  0  0  0  0  0  0  0  0
    6.3781   -0.7214    1.0829 H   0  0  0  0  0  0  0  0  0  0  0  0
    3.4720    1.4868   -1.7816 H   0  0  0  0  0  0  0  0  0  0  0  0
    4.1187   -0.5216    1.9837 H   0  0  0  0  0  0  0  0  0  0  0  0
    1.7260   -0.9419    2.1784 H   0  0  0  0  0  0  0  0  0  0  0  0
   -0.5592   -0.7257    1.2972 H   0  0  0  0  0  0  0  0  0  0  0  0
   -1.2349    1.2900   -2.4330 H   0  0  0  0  0  0  0  0  0  0  0  0
    1.1627    1.7119   -2.6553 H   0  0  0  0  0  0  0  0  0  0  0  0
   -2.9293    0.0568   -1.3992 H   0  0  0  0  0  0  0  0  0  0  0  0
   -2.8698   -0.8627    1.3852 H   0  0  0  0  0  0  0  0  0  0  0  0
   -2.4942   -1.9973    0.0724 H   0  0  0  0  0  0  0  0  0  0  0  0
   -4.8580   -2.2286    0.3774 H   0  0  0  0  0  0  0  0  0  0  0  0
   -5.7452   -1.1211   -1.6497 H   0  0  0  0  0  0  0  0  0  0  0  0
   -4.4800   -2.1412   -1.8764 H   0  0  0  0  0  0  0  0  0  0  0  0
   -5.7721    0.6249    2.2775 H   0  0  0  0  0  0  0  0  0  0  0  0
  1  2  1  0
  2  3  2  0
  2  4  1  0
  4  5  2  0
  4  6  1  0
  6  7  2  0
  7  8  1  0
  8  9  2  0
  8 10  1  0
 10 11  2  0
 11 12  1  0
 12 13  2  0
 11 14  1  0
 14 15  1  0
 15 16  1  0
 16 17  1  0
 16 18  1  0
 18 19  2  0
 18 20  1  0
  9  5  1  0
 13  9  1  0
  1 21  1  0
  1 22  1  0
  1 23  1  0
  5 24  1  0
  6 25  1  0
  7 26  1  0
 10 27  1  0
 12 28  1  0
 13 29  1  0
 14 30  1  0
 15 31  1  0
 15 32  1  0
 16 33  1  1
 17 34  1  0
 17 35  1  0
 20 36  1  0
M  END
>  <Name>  (21) 
UA01_Anap

>  <canvasUID>  (21) 
21

>  <MW>  (21) 
272.2991

>  <AlogP>  (21) 
1.0495

>  <HBA>  (21) 
1

>  <HBD>  (21) 
1

>  <RB>  (21) 
5

>  <PSA>  (21) 
92.42

>  <Estate>  (21) 
54.335

>  <Polar>  (21) 
34.742

>  <Chirality>  (21) 
[(15, 'S')]

$$$$

     RDKit          3D

 32 33  0  0  0  0  0  0  0  0999 V2000
   -4.7532    1.3220    0.0696 O   0  0  0  0  0  0  0  0  0  0  0  0
   -4.1694    0.2606   -0.0902 C   0  0  0  0  0  0  0  0  0  0  0  0
   -4.5565   -0.8410    0.5815 O   0  0  0  0  0  0  0  0  0  0  0  0
   -2.9933    0.0059   -1.0406 C   0  0  1  0  0  0  0  0  0  0  0  0
   -2.7479    1.2088   -1.8706 N   0  0  0  0  0  0  0  0  0  0  0  0
   -1.7336   -0.3592   -0.2466 C   0  0  0  0  0  0  0  0  0  0  0  0
   -0.5714   -0.7875   -1.1537 C   0  0  0  0  0  0  0  0  0  0  0  0
    0.6658   -1.1462   -0.3631 C   0  0  0  0  0  0  0  0  0  0  0  0
    0.9744   -2.4290   -0.1174 C   0  0  0  0  0  0  0  0  0  0  0  0
    2.1591   -2.8532    0.6428 C   0  0  0  0  0  0  0  0  0  0  0  0
    2.3832   -4.0417    0.8411 O   0  0  0  0  0  0  0  0  0  0  0  0
    2.9869   -1.8532    1.1188 O   0  0  0  0  0  0  0  0  0  0  0  0
    2.7092   -0.4960    0.8620 C   0  0  0  0  0  0  0  0  0  0  0  0
    1.5810   -0.1057    0.1327 C   0  0  0  0  0  0  0  0  0  0  0  0
    3.6278    0.4229    1.3742 C   0  0  0  0  0  0  0  0  0  0  0  0
    3.4121    1.7739    1.1468 C   0  0  0  0  0  0  0  0  0  0  0  0
    4.2687    2.7229    1.6180 O   0  0  0  0  0  0  0  0  0  0  0  0
    2.3058    2.2013    0.4228 C   0  0  0  0  0  0  0  0  0  0  0  0
    1.3948    1.2662   -0.0834 C   0  0  0  0  0  0  0  0  0  0  0  0
   -5.3096   -0.5366    1.1311 H   0  0  0  0  0  0  0  0  0  0  0  0
   -3.2806   -0.8125   -1.7106 H   0  0  0  0  0  0  0  0  0  0  0  0
   -2.6393    2.0097   -1.2419 H   0  0  0  0  0  0  0  0  0  0  0  0
   -3.6089    1.4216   -2.3809 H   0  0  0  0  0  0  0  0  0  0  0  0
   -1.9627   -1.1812    0.4447 H   0  0  0  0  0  0  0  0  0  0  0  0
   -1.4396    0.4870    0.3880 H   0  0  0  0  0  0  0  0  0  0  0  0
   -0.3328   -0.0166   -1.8953 H   0  0  0  0  0  0  0  0  0  0  0  0
   -0.8956   -1.6561   -1.7434 H   0  0  0  0  0  0  0  0  0  0  0  0
    0.3498   -3.2447   -0.4644 H   0  0  0  0  0  0  0  0  0  0  0  0
    4.4868    0.0692    1.9339 H   0  0  0  0  0  0  0  0  0  0  0  0
    4.9935    2.2835    2.0935 H   0  0  0  0  0  0  0  0  0  0  0  0
    2.1500    3.2629    0.2483 H   0  0  0  0  0  0  0  0  0  0  0  0
    0.5454    1.6419   -0.6477 H   0  0  0  0  0  0  0  0  0  0  0  0
  1  2  2  0
  2  3  1  0
  2  4  1  0
  4  5  1  0
  4  6  1  0
  6  7  1  0
  7  8  1  0
  8  9  2  0
  9 10  1  0
 10 11  2  0
 10 12  1  0
 12 13  1  0
 13 14  2  0
 13 15  1  0
 15 16  2  0
 16 17  1  0
 16 18  1  0
 18 19  2  0
 14  8  1  0
 19 14  1  0
  3 20  1  0
  4 21  1  6
  5 22  1  0
  5 23  1  0
  6 24  1  0
  6 25  1  0
  7 26  1  0
  7 27  1  0
  9 28  1  0
 15 29  1  0
 17 30  1  0
 18 31  1  0
 19 32  1  0
M  END
>  <Name>  (22) 
UA02_CouAA

>  <canvasUID>  (22) 
22

>  <MW>  (22) 
263.246

>  <AlogP>  (22) 
1.2189

>  <HBA>  (22) 
3

>  <HBD>  (22) 
1

>  <RB>  (22) 
4

>  <PSA>  (22) 
113.76

>  <Estate>  (22) 
56.835

>  <Polar>  (22) 
30.28

>  <Chirality>  (22) 
[(3, 'S')]

$$$$

     RDKit          3D

 42 43  0  0  0  0  0  0  0  0999 V2000
   -6.0003   -0.3851   -0.9699 O   0  0  0  0  0  0  0  0  0  0  0  0
   -5.7697    0.4713   -0.1290 C   0  0  0  0  0  0  0  0  0  0  0  0
   -6.7122    0.8001    0.7834 O   0  0  0  0  0  0  0  0  0  0  0  0
   -4.4302    1.1834    0.0742 C   0  0  1  0  0  0  0  0  0  0  0  0
   -4.6226    2.4480    0.8264 N   0  0  0  0  0  0  0  0  0  0  0  0
   -3.4751    0.2025    0.7782 C   0  0  0  0  0  0  0  0  0  0  0  0
   -2.9959   -0.8282   -0.1629 N   0  0  0  0  0  0  0  0  0  0  0  0
   -1.6667   -1.7573    0.3036 S   0  0  0  0  0  6  0  0  0  0  0  0
   -1.7211   -2.9537   -0.5049 O   0  0  0  0  0  0  0  0  0  0  0  0
   -1.6917   -1.7977    1.7494 O   0  0  0  0  0  0  0  0  0  0  0  0
   -0.2456   -0.8230   -0.2362 C   0  0  0  0  0  0  0  0  0  0  0  0
   -0.4533    0.1729   -1.1999 C   0  0  0  0  0  0  0  0  0  0  0  0
    0.6065    0.9580   -1.6157 C   0  0  0  0  0  0  0  0  0  0  0  0
    1.8723    0.7476   -1.0731 C   0  0  0  0  0  0  0  0  0  0  0  0
    1.0487   -1.0775    0.3093 C   0  0  0  0  0  0  0  0  0  0  0  0
    2.1403   -0.2579   -0.1128 C   0  0  0  0  0  0  0  0  0  0  0  0
    1.3213   -2.1143    1.2362 C   0  0  0  0  0  0  0  0  0  0  0  0
    2.5933   -2.3318    1.7549 C   0  0  0  0  0  0  0  0  0  0  0  0
    3.6400   -1.5188    1.3572 C   0  0  0  0  0  0  0  0  0  0  0  0
    3.4461   -0.4819    0.4305 C   0  0  0  0  0  0  0  0  0  0  0  0
    4.6076    0.2530    0.1211 N   0  0  0  0  0  0  0  0  0  0  0  0
    4.6290    1.6264    0.6085 C   0  0  0  0  0  0  0  0  0  0  0  0
    5.1618    0.0029   -1.2041 C   0  0  0  0  0  0  0  0  0  0  0  0
   -7.4980    0.2779    0.5161 H   0  0  0  0  0  0  0  0  0  0  0  0
   -4.0475    1.4561   -0.9158 H   0  0  0  0  0  0  0  0  0  0  0  0
   -5.2891    2.2701    1.5834 H   0  0  0  0  0  0  0  0  0  0  0  0
   -3.7501    2.7405    1.2618 H   0  0  0  0  0  0  0  0  0  0  0  0
   -2.6095    0.7554    1.1619 H   0  0  0  0  0  0  0  0  0  0  0  0
   -3.9797   -0.2849    1.6207 H   0  0  0  0  0  0  0  0  0  0  0  0
   -3.6950   -1.3929   -0.6561 H   0  0  0  0  0  0  0  0  0  0  0  0
   -1.4309    0.3410   -1.6424 H   0  0  0  0  0  0  0  0  0  0  0  0
    0.4568    1.7329   -2.3633 H   0  0  0  0  0  0  0  0  0  0  0  0
    2.6701    1.3888   -1.4333 H   0  0  0  0  0  0  0  0  0  0  0  0
    0.5433   -2.7947    1.5758 H   0  0  0  0  0  0  0  0  0  0  0  0
    2.7644   -3.1350    2.4661 H   0  0  0  0  0  0  0  0  0  0  0  0
    4.6335   -1.6890    1.7663 H   0  0  0  0  0  0  0  0  0  0  0  0
    4.0465    2.3056   -0.0198 H   0  0  0  0  0  0  0  0  0  0  0  0
    5.6612    1.9937    0.6208 H   0  0  0  0  0  0  0  0  0  0  0  0
    4.2540    1.6896    1.6365 H   0  0  0  0  0  0  0  0  0  0  0  0
    6.1932    0.3702   -1.2460 H   0  0  0  0  0  0  0  0  0  0  0  0
    4.6000    0.5061   -1.9958 H   0  0  0  0  0  0  0  0  0  0  0  0
    5.1943   -1.0703   -1.4247 H   0  0  0  0  0  0  0  0  0  0  0  0
  1  2  2  0
  2  3  1  0
  2  4  1  0
  4  5  1  0
  4  6  1  0
  6  7  1  0
  7  8  1  0
  8  9  2  0
  8 10  2  0
  8 11  1  0
 11 12  2  0
 12 13  1  0
 13 14  2  0
 11 15  1  0
 15 16  2  0
 15 17  1  0
 17 18  2  0
 18 19  1  0
 19 20  2  0
 20 21  1  0
 21 22  1  0
 21 23  1  0
 16 14  1  0
 20 16  1  0
  3 24  1  0
  4 25  1  6
  5 26  1  0
  5 27  1  0
  6 28  1  0
  6 29  1  0
  7 30  1  0
 12 31  1  0
 13 32  1  0
 14 33  1  0
 17 34  1  0
 18 35  1  0
 19 36  1  0
 22 37  1  0
 22 38  1  0
 22 39  1  0
 23 40  1  0
 23 41  1  0
 23 42  1  0
M  END
>  <Name>  (23) 
UA03_DansylA

>  <canvasUID>  (23) 
23

>  <MW>  (23) 
337.3941

>  <AlogP>  (23) 
0.5742

>  <HBA>  (23) 
2

>  <HBD>  (23) 
1

>  <RB>  (23) 
6

>  <PSA>  (23) 
121.11

>  <Estate>  (23) 
64.585

>  <Polar>  (23) 
39.845

>  <Chirality>  (23) 
[(3, 'S')]

$$$$

     RDKit          3D

 42 42  0  0  0  0  0  0  0  0999 V2000
   -5.0562    0.5434   -2.1147 O   0  0  0  0  0  0  0  0  0  0  0  0
   -5.3310    0.6570   -0.9292 C   0  0  0  0  0  0  0  0  0  0  0  0
   -6.0399    1.7175   -0.4919 O   0  0  0  0  0  0  0  0  0  0  0  0
   -4.9161   -0.2954    0.1979 C   0  0  1  0  0  0  0  0  0  0  0  0
   -4.9781   -1.6864   -0.3042 N   0  0  0  0  0  0  0  0  0  0  0  0
   -3.4953    0.0265    0.6850 C   0  0  0  0  0  0  0  0  0  0  0  0
   -3.4078    1.3836    1.3932 C   0  0  0  0  0  0  0  0  0  0  0  0
   -2.0852    1.6225    2.1335 C   0  0  0  0  0  0  0  0  0  0  0  0
   -0.8666    1.7695    1.2252 C   0  0  0  0  0  0  0  0  0  0  0  0
   -0.3741    0.4995    0.7478 N   0  0  0  0  0  0  0  0  0  0  0  0
    0.4274    0.4112   -0.3516 C   0  0  0  0  0  0  0  0  0  0  0  0
    0.6671    1.3240   -1.1263 O   0  0  0  0  0  0  0  0  0  0  0  0
    0.9210   -0.8459   -0.4294 O   0  0  0  0  0  0  0  0  0  0  0  0
    1.8116   -1.0925   -1.5232 C   0  0  0  0  0  0  0  0  0  0  0  0
    3.2362   -0.9953   -1.0393 C   0  0  0  0  0  0  0  0  0  0  0  0
    3.9433    0.2087   -1.1558 C   0  0  0  0  0  0  0  0  0  0  0  0
    5.2551    0.3079   -0.6850 C   0  0  0  0  0  0  0  0  0  0  0  0
    5.8817   -0.7931   -0.0946 C   0  0  0  0  0  0  0  0  0  0  0  0
    5.1681   -1.9865    0.0483 C   0  0  0  0  0  0  0  0  0  0  0  0
    3.8557   -2.0893   -0.4209 C   0  0  0  0  0  0  0  0  0  0  0  0
    7.1911   -0.6889    0.3940 N   0  0  0  0  0  0  0  0  0  0  0  0
    8.0390   -0.9703   -0.4755 N   0  0  0  0  0  4  0  0  0  0  0  0
    8.8248   -1.2271   -1.2616 N   0  0  0  0  0  2  0  0  0  0  0  0
   -6.2419    2.2123   -1.3137 H   0  0  0  0  0  0  0  0  0  0  0  0
   -5.6377   -0.2126    1.0180 H   0  0  0  0  0  0  0  0  0  0  0  0
   -4.4853   -2.3081    0.3331 H   0  0  0  0  0  0  0  0  0  0  0  0
   -4.4772   -1.7282   -1.1956 H   0  0  0  0  0  0  0  0  0  0  0  0
   -2.8075    0.0136   -0.1687 H   0  0  0  0  0  0  0  0  0  0  0  0
   -3.1653   -0.7541    1.3824 H   0  0  0  0  0  0  0  0  0  0  0  0
   -4.2187    1.4530    2.1291 H   0  0  0  0  0  0  0  0  0  0  0  0
   -3.5667    2.1937    0.6718 H   0  0  0  0  0  0  0  0  0  0  0  0
   -1.9211    0.8262    2.8697 H   0  0  0  0  0  0  0  0  0  0  0  0
   -2.1944    2.5564    2.6995 H   0  0  0  0  0  0  0  0  0  0  0  0
   -1.0849    2.4278    0.3769 H   0  0  0  0  0  0  0  0  0  0  0  0
   -0.0447    2.2254    1.7891 H   0  0  0  0  0  0  0  0  0  0  0  0
   -0.2786   -0.2762    1.3886 H   0  0  0  0  0  0  0  0  0  0  0  0
    1.6318   -0.4309   -2.3797 H   0  0  0  0  0  0  0  0  0  0  0  0
    1.6136   -2.1085   -1.8845 H   0  0  0  0  0  0  0  0  0  0  0  0
    3.4704    1.0814   -1.6046 H   0  0  0  0  0  0  0  0  0  0  0  0
    5.7860    1.2524   -0.7735 H   0  0  0  0  0  0  0  0  0  0  0  0
    5.6335   -2.8404    0.5340 H   0  0  0  0  0  0  0  0  0  0  0  0
    3.3169   -3.0258   -0.2933 H   0  0  0  0  0  0  0  0  0  0  0  0
  1  2  2  0
  2  3  1  0
  2  4  1  0
  4  5  1  0
  4  6  1  0
  6  7  1  0
  7  8  1  0
  8  9  1  0
  9 10  1  0
 10 11  1  0
 11 12  2  0
 11 13  1  0
 13 14  1  0
 14 15  1  0
 15 16  2  0
 16 17  1  0
 17 18  2  0
 18 19  1  0
 19 20  2  0
 18 21  1  0
 21 22  2  0
 22 23  2  0
 20 15  1  0
  3 24  1  0
  4 25  1  1
  5 26  1  0
  5 27  1  0
  6 28  1  0
  6 29  1  0
  7 30  1  0
  7 31  1  0
  8 32  1  0
  8 33  1  0
  9 34  1  0
  9 35  1  0
 10 36  1  0
 14 37  1  0
 14 38  1  0
 16 39  1  0
 17 40  1  0
 19 41  1  0
 20 42  1  0
M  CHG  2  22   1  23  -1
M  END
>  <Name>  (24) 
UA04_PABK

>  <canvasUID>  (24) 
24

>  <MW>  (24) 
321.3318

>  <AlogP>  (24) 
0.4819

>  <HBA>  (24) 
2

>  <HBD>  (24) 
1

>  <RB>  (24) 
10

>  <PSA>  (24) 
114.01

>  <Estate>  (24) 
57.501

>  <Polar>  (24) 
35.097

>  <Chirality>  (24) 
[(3, 'S')]

$$$$

     RDKit          3D

 32 31  0  0  0  0  0  0  0  0999 V2000
    5.7961    2.9538   -0.9678 C   0  0  0  0  0  0  0  0  0  0  0  0
    5.6345    1.8561   -0.5077 C   0  0  0  0  0  0  0  0  0  0  0  0
    5.4345    0.5155    0.0565 C   0  0  0  0  0  0  0  0  0  0  0  0
    4.2360   -0.0593   -0.4777 O   0  0  0  0  0  0  0  0  0  0  0  0
    3.1587   -0.0263    0.3378 C   0  0  0  0  0  0  0  0  0  0  0  0
    3.1285    0.4314    1.4691 O   0  0  0  0  0  0  0  0  0  0  0  0
    2.0968   -0.5788   -0.3158 N   0  0  0  0  0  0  0  0  0  0  0  0
    0.7542   -0.4840    0.2093 C   0  0  0  0  0  0  0  0  0  0  0  0
   -0.1722   -1.4922   -0.4634 C   0  0  0  0  0  0  0  0  0  0  0  0
   -1.5811   -1.5258    0.1372 C   0  0  0  0  0  0  0  0  0  0  0  0
   -2.3704   -0.2325   -0.0958 C   0  0  0  0  0  0  0  0  0  0  0  0
   -3.7939   -0.2753    0.4825 C   0  0  2  0  0  0  0  0  0  0  0  0
   -4.6792   -1.1982   -0.2543 N   0  0  0  0  0  0  0  0  0  0  0  0
   -4.3845    1.1388    0.4369 C   0  0  0  0  0  0  0  0  0  0  0  0
   -5.0312    1.6303   -0.4763 O   0  0  0  0  0  0  0  0  0  0  0  0
   -4.0767    1.8705    1.5273 O   0  0  0  0  0  0  0  0  0  0  0  0
    5.9355    3.9292   -1.3737 H   0  0  0  0  0  0  0  0  0  0  0  0
    5.4428    0.5378    1.1519 H   0  0  0  0  0  0  0  0  0  0  0  0
    6.2601   -0.1372   -0.2474 H   0  0  0  0  0  0  0  0  0  0  0  0
    2.2449   -0.7140   -1.3065 H   0  0  0  0  0  0  0  0  0  0  0  0
    0.4167    0.5428    0.0352 H   0  0  0  0  0  0  0  0  0  0  0  0
    0.7844   -0.6481    1.2924 H   0  0  0  0  0  0  0  0  0  0  0  0
   -0.2318   -1.2832   -1.5389 H   0  0  0  0  0  0  0  0  0  0  0  0
    0.2655   -2.4946   -0.3702 H   0  0  0  0  0  0  0  0  0  0  0  0
   -1.5162   -1.7297    1.2128 H   0  0  0  0  0  0  0  0  0  0  0  0
   -2.1121   -2.3716   -0.3133 H   0  0  0  0  0  0  0  0  0  0  0  0
   -1.8324    0.6058    0.3631 H   0  0  0  0  0  0  0  0  0  0  0  0
   -2.4110   -0.0134   -1.1711 H   0  0  0  0  0  0  0  0  0  0  0  0
   -3.7743   -0.6001    1.5290 H   0  0  0  0  0  0  0  0  0  0  0  0
   -4.2142   -2.0854   -0.4253 H   0  0  0  0  0  0  0  0  0  0  0  0
   -4.8870   -0.7913   -1.1692 H   0  0  0  0  0  0  0  0  0  0  0  0
   -4.5210    2.7291    1.3651 H   0  0  0  0  0  0  0  0  0  0  0  0
  1  2  3  0
  2  3  1  0
  3  4  1  0
  4  5  1  0
  5  6  2  0
  5  7  1  0
  7  8  1  0
  8  9  1  0
  9 10  1  0
 10 11  1  0
 11 12  1  0
 12 13  1  0
 12 14  1  0
 14 15  2  0
 14 16  1  0
  1 17  1  0
  3 18  1  0
  3 19  1  0
  7 20  1  0
  8 21  1  0
  8 22  1  0
  9 23  1  0
  9 24  1  0
 10 25  1  0
 10 26  1  0
 11 27  1  0
 11 28  1  0
 12 29  1  1
 13 30  1  0
 13 31  1  0
 16 32  1  0
M  END
>  <Name>  (25) 
UA05_PrK

>  <canvasUID>  (25) 
25

>  <MW>  (25) 
228.245

>  <AlogP>  (25) 
1.2648

>  <HBA>  (25) 
2

>  <HBD>  (25) 
2

>  <RB>  (25) 
8

>  <PSA>  (25) 
101.65

>  <Estate>  (25) 
49.667

>  <Polar>  (25) 
22.168

>  <Chirality>  (25) 
[(11, 'S')]

$$$$

     RDKit          3D

 38 38  0  0  0  0  0  0  0  0999 V2000
    3.6966    1.9721   -0.9553 O   0  0  0  0  0  0  0  0  0  0  0  0
    4.0294    0.7999   -1.0449 C   0  0  0  0  0  0  0  0  0  0  0  0
    3.8316    0.1241   -2.1939 O   0  0  0  0  0  0  0  0  0  0  0  0
    4.7184   -0.0391    0.0369 C   0  0  1  0  0  0  0  0  0  0  0  0
    5.1104    0.8055    1.1856 N   0  0  0  0  0  0  0  0  0  0  0  0
    3.8929   -1.2630    0.4691 C   0  0  0  0  0  0  0  0  0  0  0  0
    2.7469   -1.0374    1.4683 C   0  0  0  0  0  0  0  0  0  0  0  0
    1.5998   -0.1358    1.0124 C   0  0  0  0  0  0  0  0  0  0  0  0
    0.8296   -0.6868   -0.1855 C   0  0  0  0  0  0  0  0  0  0  0  0
   -0.2658    0.1829   -0.5456 N   0  0  0  0  0  0  0  0  0  0  0  0
   -1.4988    0.0939    0.0260 C   0  0  0  0  0  0  0  0  0  0  0  0
   -1.8450   -0.7607    0.8266 O   0  0  0  0  0  0  0  0  0  0  0  0
   -2.2654    1.1112   -0.4317 O   0  0  0  0  0  0  0  0  0  0  0  0
   -3.6088    1.1535    0.0740 C   0  0  0  0  0  0  0  0  0  0  0  0
   -4.5299    0.5138   -0.9111 C   0  0  1  0  0  0  0  0  0  0  0  0
   -4.7981   -0.8992   -0.8785 C   0  0  0  0  0  0  0  0  0  0  0  0
   -5.7834   -0.0765   -0.5210 C   0  0  0  0  0  0  0  0  0  0  0  0
   -6.5182   -0.0758    0.7578 C   0  0  0  0  0  0  0  0  0  0  0  0
    3.4432    0.7867   -2.8033 H   0  0  0  0  0  0  0  0  0  0  0  0
    5.6508   -0.3981   -0.4174 H   0  0  0  0  0  0  0  0  0  0  0  0
    5.6964    1.5674    0.8374 H   0  0  0  0  0  0  0  0  0  0  0  0
    4.2770    1.2802    1.5393 H   0  0  0  0  0  0  0  0  0  0  0  0
    4.5843   -1.9740    0.9424 H   0  0  0  0  0  0  0  0  0  0  0  0
    3.5010   -1.7800   -0.4148 H   0  0  0  0  0  0  0  0  0  0  0  0
    2.3307   -2.0194    1.7291 H   0  0  0  0  0  0  0  0  0  0  0  0
    3.1554   -0.6358    2.4036 H   0  0  0  0  0  0  0  0  0  0  0  0
    1.9647    0.8736    0.7969 H   0  0  0  0  0  0  0  0  0  0  0  0
    0.9059   -0.0206    1.8555 H   0  0  0  0  0  0  0  0  0  0  0  0
    0.4358   -1.6836    0.0419 H   0  0  0  0  0  0  0  0  0  0  0  0
    1.4692   -0.7664   -1.0679 H   0  0  0  0  0  0  0  0  0  0  0  0
   -0.1046    1.0032   -1.1128 H   0  0  0  0  0  0  0  0  0  0  0  0
   -3.6781    0.7252    1.0822 H   0  0  0  0  0  0  0  0  0  0  0  0
   -3.8724    2.2128    0.1710 H   0  0  0  0  0  0  0  0  0  0  0  0
   -4.4964    0.9803   -1.8864 H   0  0  0  0  0  0  0  0  0  0  0  0
   -4.4450   -1.7209   -0.2731 H   0  0  0  0  0  0  0  0  0  0  0  0
   -7.5748   -0.2979    0.5800 H   0  0  0  0  0  0  0  0  0  0  0  0
   -6.4569    0.9060    1.2377 H   0  0  0  0  0  0  0  0  0  0  0  0
   -6.1286   -0.8215    1.4585 H   0  0  0  0  0  0  0  0  0  0  0  0
  1  2  2  0
  2  3  1  0
  2  4  1  0
  4  5  1  0
  4  6  1  0
  6  7  1  0
  7  8  1  0
  8  9  1  0
  9 10  1  0
 10 11  1  0
 11 12  2  0
 11 13  1  0
 13 14  1  0
 14 15  1  0
 15 16  1  0
 16 17  2  0
 17 18  1  0
 17 15  1  0
  3 19  1  0
  4 20  1  6
  5 21  1  0
  5 22  1  0
  6 23  1  0
  6 24  1  0
  7 25  1  0
  7 26  1  0
  8 27  1  0
  8 28  1  0
  9 29  1  0
  9 30  1  0
 10 31  1  0
 14 32  1  0
 14 33  1  0
 15 34  1  6
 16 35  1  0
 18 36  1  0
 18 37  1  0
 18 38  1  0
M  END
>  <Name>  (26) 
UA06_CpK

>  <canvasUID>  (26) 
26

>  <MW>  (26) 
256.2982

>  <AlogP>  (26) 
0.8946

>  <HBA>  (26) 
2

>  <HBD>  (26) 
1

>  <RB>  (26) 
9

>  <PSA>  (26) 
101.65

>  <Estate>  (26) 
50.167

>  <Polar>  (26) 
25.976

>  <Chirality>  (26) 
[(3, 'S'), (14, 'S')]

$$$$

     RDKit          3D

 30 29  0  0  0  0  0  0  0  0999 V2000
   -5.7887   -0.9588   -0.3564 C   0  0  0  0  0  0  0  0  0  0  0  0
   -4.5694   -0.4254   -0.5039 C   0  0  0  0  0  0  0  0  0  0  0  0
   -3.5846   -0.4769    0.6077 C   0  0  0  0  0  0  0  0  0  0  0  0
   -3.8161   -1.0365    1.6709 O   0  0  0  0  0  0  0  0  0  0  0  0
   -2.4135    0.1768    0.3090 N   0  0  0  0  0  0  0  0  0  0  0  0
   -1.3889    0.3626    1.3168 C   0  0  0  0  0  0  0  0  0  0  0  0
   -0.0192    0.6474    0.7028 C   0  0  0  0  0  0  0  0  0  0  0  0
    0.5572   -0.5726   -0.0204 C   0  0  0  0  0  0  0  0  0  0  0  0
    1.8492   -0.3055   -0.8061 C   0  0  0  0  0  0  0  0  0  0  0  0
    3.0848    0.0084    0.0510 C   0  0  2  0  0  0  0  0  0  0  0  0
    3.0361    1.3968    0.5681 N   0  0  0  0  0  0  0  0  0  0  0  0
    4.3769   -0.2190   -0.7572 C   0  0  0  0  0  0  0  0  0  0  0  0
    4.5876   -1.1005   -1.5741 O   0  0  0  0  0  0  0  0  0  0  0  0
    5.3585    0.6628   -0.4533 O   0  0  0  0  0  0  0  0  0  0  0  0
   -6.5119   -0.9309   -1.1637 H   0  0  0  0  0  0  0  0  0  0  0  0
   -6.0892   -1.4363    0.5729 H   0  0  0  0  0  0  0  0  0  0  0  0
   -4.2799    0.0421   -1.4356 H   0  0  0  0  0  0  0  0  0  0  0  0
   -2.3750    0.7582   -0.5161 H   0  0  0  0  0  0  0  0  0  0  0  0
   -1.7021    1.2141    1.9313 H   0  0  0  0  0  0  0  0  0  0  0  0
   -1.3476   -0.5176    1.9682 H   0  0  0  0  0  0  0  0  0  0  0  0
   -0.0915    1.4931    0.0084 H   0  0  0  0  0  0  0  0  0  0  0  0
    0.6510    0.9422    1.5164 H   0  0  0  0  0  0  0  0  0  0  0  0
    0.7304   -1.3793    0.7025 H   0  0  0  0  0  0  0  0  0  0  0  0
   -0.1854   -0.9511   -0.7338 H   0  0  0  0  0  0  0  0  0  0  0  0
    1.6794    0.4954   -1.5380 H   0  0  0  0  0  0  0  0  0  0  0  0
    2.0477   -1.2063   -1.4017 H   0  0  0  0  0  0  0  0  0  0  0  0
    3.1343   -0.6744    0.9069 H   0  0  0  0  0  0  0  0  0  0  0  0
    3.0192    2.0372   -0.2266 H   0  0  0  0  0  0  0  0  0  0  0  0
    3.9412    1.5800    1.0124 H   0  0  0  0  0  0  0  0  0  0  0  0
    6.1096    0.3741   -1.0141 H   0  0  0  0  0  0  0  0  0  0  0  0
  1  2  2  3
  2  3  1  0
  3  4  2  0
  3  5  1  0
  5  6  1  0
  6  7  1  0
  7  8  1  0
  8  9  1  0
  9 10  1  0
 10 11  1  0
 10 12  1  0
 12 13  2  0
 12 14  1  0
  1 15  1  0
  1 16  1  0
  2 17  1  0
  5 18  1  0
  6 19  1  0
  6 20  1  0
  7 21  1  0
  7 22  1  0
  8 23  1  0
  8 24  1  0
  9 25  1  0
  9 26  1  0
 10 27  1  1
 11 28  1  0
 11 29  1  0
 14 30  1  0
M  END
>  <Name>  (27) 
UA07_AcrK

>  <canvasUID>  (27) 
27

>  <MW>  (27) 
200.2349

>  <AlogP>  (27) 
-0.1742

>  <HBA>  (27) 
1

>  <HBD>  (27) 
1

>  <RB>  (27) 
7

>  <PSA>  (27) 
92.42

>  <Estate>  (27) 
43.167

>  <Polar>  (27) 
20.608

>  <Chirality>  (27) 
[(9, 'S')]

$$$$

     RDKit          3D

 45 45  0  0  0  0  0  0  0  0999 V2000
    7.2024    0.2432    0.6923 O   0  0  0  0  0  0  0  0  0  0  0  0
    6.3702   -0.6459    0.7964 C   0  0  0  0  0  0  0  0  0  0  0  0
    6.2456   -1.5805   -0.1657 O   0  0  0  0  0  0  0  0  0  0  0  0
    5.4096   -0.8575    1.9736 C   0  0  1  0  0  0  0  0  0  0  0  0
    5.7359    0.0916    3.0647 N   0  0  0  0  0  0  0  0  0  0  0  0
    3.9561   -0.6715    1.5164 C   0  0  0  0  0  0  0  0  0  0  0  0
    2.9399   -0.9915    2.6195 C   0  0  0  0  0  0  0  0  0  0  0  0
    1.4897   -0.9520    2.1305 C   0  0  0  0  0  0  0  0  0  0  0  0
    1.0194    0.4514    1.7523 C   0  0  0  0  0  0  0  0  0  0  0  0
   -0.3780    0.4582    1.3874 N   0  0  0  0  0  0  0  0  0  0  0  0
   -0.8174    0.1354    0.1403 C   0  0  0  0  0  0  0  0  0  0  0  0
   -0.1044   -0.1278   -0.8152 O   0  0  0  0  0  0  0  0  0  0  0  0
   -2.1720    0.1469    0.1374 O   0  0  0  0  0  0  0  0  0  0  0  0
   -2.8252   -0.1719   -1.1180 C   0  0  1  0  0  0  0  0  0  0  0  0
   -4.1183   -0.9400   -0.7458 C   0  0  0  0  0  0  0  0  0  0  0  0
   -5.2237   -0.1493   -0.0157 C   0  0  0  0  0  0  0  0  0  0  0  0
   -5.8105    0.7783   -0.9762 C   0  0  0  0  0  0  0  0  0  0  0  0
   -5.7722    1.4118   -1.9907 C   0  0  0  0  0  0  0  0  0  0  0  0
   -5.0596    1.8850   -3.1725 C   0  0  0  0  0  0  0  0  0  0  0  0
   -3.7280    1.0984   -3.2615 C   0  0  0  0  0  0  0  0  0  0  0  0
   -2.8986    1.1328   -1.9571 C   0  0  0  0  0  0  0  0  0  0  0  0
    6.9098   -1.3240   -0.8395 H   0  0  0  0  0  0  0  0  0  0  0  0
    5.5700   -1.8729    2.3539 H   0  0  0  0  0  0  0  0  0  0  0  0
    5.7005    1.0389    2.6799 H   0  0  0  0  0  0  0  0  0  0  0  0
    6.7210   -0.0354    3.3080 H   0  0  0  0  0  0  0  0  0  0  0  0
    3.8154    0.3559    1.1582 H   0  0  0  0  0  0  0  0  0  0  0  0
    3.7592   -1.3226    0.6553 H   0  0  0  0  0  0  0  0  0  0  0  0
    3.1423   -1.9973    3.0078 H   0  0  0  0  0  0  0  0  0  0  0  0
    3.0564   -0.2971    3.4596 H   0  0  0  0  0  0  0  0  0  0  0  0
    0.8438   -1.3400    2.9288 H   0  0  0  0  0  0  0  0  0  0  0  0
    1.3663   -1.6335    1.2797 H   0  0  0  0  0  0  0  0  0  0  0  0
    1.5977    0.8432    0.9096 H   0  0  0  0  0  0  0  0  0  0  0  0
    1.1346    1.1373    2.5978 H   0  0  0  0  0  0  0  0  0  0  0  0
   -1.0915    0.5821    2.0918 H   0  0  0  0  0  0  0  0  0  0  0  0
   -2.2074   -0.8919   -1.6722 H   0  0  0  0  0  0  0  0  0  0  0  0
   -4.5316   -1.3998   -1.6531 H   0  0  0  0  0  0  0  0  0  0  0  0
   -3.8311   -1.7669   -0.0819 H   0  0  0  0  0  0  0  0  0  0  0  0
   -4.8129    0.3811    0.8493 H   0  0  0  0  0  0  0  0  0  0  0  0
   -5.9877   -0.8439    0.3499 H   0  0  0  0  0  0  0  0  0  0  0  0
   -4.8518    2.9574   -3.0904 H   0  0  0  0  0  0  0  0  0  0  0  0
   -5.6466    1.7253   -4.0825 H   0  0  0  0  0  0  0  0  0  0  0  0
   -3.9209    0.0596   -3.5565 H   0  0  0  0  0  0  0  0  0  0  0  0
   -3.1363    1.5443   -4.0707 H   0  0  0  0  0  0  0  0  0  0  0  0
   -3.1940    1.9754   -1.3184 H   0  0  0  0  0  0  0  0  0  0  0  0
   -1.8663    1.3799   -2.2424 H   0  0  0  0  0  0  0  0  0  0  0  0
  1  2  2  0
  2  3  1  0
  2  4  1  0
  4  5  1  0
  4  6  1  0
  6  7  1  0
  7  8  1  0
  8  9  1  0
  9 10  1  0
 10 11  1  0
 11 12  2  0
 11 13  1  0
 13 14  1  0
 14 15  1  0
 15 16  1  0
 16 17  1  0
 17 18  3  0
 18 19  1  0
 19 20  1  0
 20 21  1  0
 21 14  1  0
  3 22  1  0
  4 23  1  1
  5 24  1  0
  5 25  1  0
  6 26  1  0
  6 27  1  0
  7 28  1  0
  7 29  1  0
  8 30  1  0
  8 31  1  0
  9 32  1  0
  9 33  1  0
 10 34  1  0
 14 35  1  6
 15 36  1  0
 15 37  1  0
 16 38  1  0
 16 39  1  0
 19 40  1  0
 19 41  1  0
 20 42  1  0
 20 43  1  0
 21 44  1  0
 21 45  1  0
M  END
>  <Name>  (28) 
UA08_CoK

>  <canvasUID>  (28) 
28

>  <MW>  (28) 
296.3621

>  <AlogP>  (28) 
2.5213

>  <HBA>  (28) 
2

>  <HBD>  (28) 
1

>  <RB>  (28) 
8

>  <PSA>  (28) 
101.65

>  <Estate>  (28) 
55.5

>  <Polar>  (28) 
30.569

>  <Chirality>  (28) 
[(3, 'S'), (13, 'R')]

$$$$

     RDKit          3D

 49 50  0  0  0  0  0  0  0  0999 V2000
    5.8886   -1.5893   -3.6547 O   0  0  0  0  0  0  0  0  0  0  0  0
    5.7824   -1.4525   -2.4448 C   0  0  0  0  0  0  0  0  0  0  0  0
    5.8447   -2.5255   -1.6298 O   0  0  0  0  0  0  0  0  0  0  0  0
    5.5322   -0.1408   -1.6939 C   0  0  1  0  0  0  0  0  0  0  0  0
    6.3347    0.9319   -2.3237 N   0  0  0  0  0  0  0  0  0  0  0  0
    4.0426    0.2285   -1.7336 C   0  0  0  0  0  0  0  0  0  0  0  0
    3.1042   -0.7649   -1.0338 C   0  0  0  0  0  0  0  0  0  0  0  0
    3.3599   -0.8865    0.4719 C   0  0  0  0  0  0  0  0  0  0  0  0
    2.3738   -1.8330    1.1589 C   0  0  0  0  0  0  0  0  0  0  0  0
    1.0143   -1.3497    1.1196 N   0  0  0  0  0  0  0  0  0  0  0  0
    0.5404   -0.3960    1.9669 C   0  0  0  0  0  0  0  0  0  0  0  0
    1.1711    0.1255    2.8732 O   0  0  0  0  0  0  0  0  0  0  0  0
   -0.7401   -0.1127    1.6350 O   0  0  0  0  0  0  0  0  0  0  0  0
   -1.3447    0.8853    2.4641 C   0  0  0  0  0  0  0  0  0  0  0  0
   -2.7605    1.1468    2.0365 C   0  0  2  0  0  0  0  0  0  0  0  0
   -3.6585    0.0330    1.5361 C   0  0  2  0  0  0  0  0  0  0  0  0
   -3.1665    1.1308    0.5762 C   0  0  1  0  0  0  0  0  0  0  0  0
   -5.0646   -0.0932    2.0856 C   0  0  0  0  0  0  0  0  0  0  0  0
   -6.0285   -0.8384    1.1320 C   0  0  0  0  0  0  0  0  0  0  0  0
   -6.1063   -0.0708   -0.1104 C   0  0  0  0  0  0  0  0  0  0  0  0
   -5.7236    0.7833   -0.8574 C   0  0  0  0  0  0  0  0  0  0  0  0
   -4.8164    1.8669   -1.2337 C   0  0  0  0  0  0  0  0  0  0  0  0
   -4.0089    2.2629    0.0253 C   0  0  0  0  0  0  0  0  0  0  0  0
    6.0397   -3.2662   -2.2416 H   0  0  0  0  0  0  0  0  0  0  0  0
    5.8923   -0.2433   -0.6659 H   0  0  0  0  0  0  0  0  0  0  0  0
    6.0284    1.8398   -1.9788 H   0  0  0  0  0  0  0  0  0  0  0  0
    6.1507    0.9263   -3.3298 H   0  0  0  0  0  0  0  0  0  0  0  0
    3.7161    0.3165   -2.7788 H   0  0  0  0  0  0  0  0  0  0  0  0
    3.8978    1.2175   -1.2791 H   0  0  0  0  0  0  0  0  0  0  0  0
    3.1785   -1.7515   -1.5052 H   0  0  0  0  0  0  0  0  0  0  0  0
    2.0758   -0.4215   -1.2003 H   0  0  0  0  0  0  0  0  0  0  0  0
    3.3090    0.1070    0.9333 H   0  0  0  0  0  0  0  0  0  0  0  0
    4.3702   -1.2718    0.6461 H   0  0  0  0  0  0  0  0  0  0  0  0
    2.6644   -1.9595    2.2079 H   0  0  0  0  0  0  0  0  0  0  0  0
    2.3868   -2.8188    0.6826 H   0  0  0  0  0  0  0  0  0  0  0  0
    0.3843   -1.6404    0.3851 H   0  0  0  0  0  0  0  0  0  0  0  0
   -0.7751    1.8190    2.3887 H   0  0  0  0  0  0  0  0  0  0  0  0
   -1.3476    0.5440    3.5058 H   0  0  0  0  0  0  0  0  0  0  0  0
   -3.2077    1.9040    2.6735 H   0  0  0  0  0  0  0  0  0  0  0  0
   -3.2164   -0.9510    1.4020 H   0  0  0  0  0  0  0  0  0  0  0  0
   -2.4198    0.8266   -0.1528 H   0  0  0  0  0  0  0  0  0  0  0  0
   -5.4713    0.8977    2.3247 H   0  0  0  0  0  0  0  0  0  0  0  0
   -5.0135   -0.6470    3.0307 H   0  0  0  0  0  0  0  0  0  0  0  0
   -7.0153   -0.9253    1.5979 H   0  0  0  0  0  0  0  0  0  0  0  0
   -5.6556   -1.8490    0.9339 H   0  0  0  0  0  0  0  0  0  0  0  0
   -4.1380    1.5383   -2.0283 H   0  0  0  0  0  0  0  0  0  0  0  0
   -5.3763    2.7329   -1.6011 H   0  0  0  0  0  0  0  0  0  0  0  0
   -3.3390    3.0904   -0.2377 H   0  0  0  0  0  0  0  0  0  0  0  0
   -4.6889    2.6436    0.7979 H   0  0  0  0  0  0  0  0  0  0  0  0
  1  2  2  0
  2  3  1  0
  2  4  1  0
  4  5  1  0
  4  6  1  0
  6  7  1  0
  7  8  1  0
  8  9  1  0
  9 10  1  0
 10 11  1  0
 11 12  2  0
 11 13  1  0
 13 14  1  0
 14 15  1  0
 15 16  1  0
 16 17  1  0
 16 18  1  0
 18 19  1  0
 19 20  1  0
 20 21  3  0
 21 22  1  0
 22 23  1  0
 17 15  1  0
 23 17  1  0
  3 24  1  0
  4 25  1  1
  5 26  1  0
  5 27  1  0
  6 28  1  0
  6 29  1  0
  7 30  1  0
  7 31  1  0
  8 32  1  0
  8 33  1  0
  9 34  1  0
  9 35  1  0
 10 36  1  0
 14 37  1  0
 14 38  1  0
 15 39  1  1
 16 40  1  6
 17 41  1  6
 18 42  1  0
 18 43  1  0
 19 44  1  0
 19 45  1  0
 22 46  1  0
 22 47  1  0
 23 48  1  0
 23 49  1  0
M  END
>  <Name>  (29) 
UA09_BCNK

>  <canvasUID>  (29) 
29

>  <MW>  (29) 
322.3993

>  <AlogP>  (29) 
2.5276

>  <HBA>  (29) 
2

>  <HBD>  (29) 
1

>  <RB>  (29) 
9

>  <PSA>  (29) 
101.65

>  <Estate>  (29) 
58.166

>  <Polar>  (29) 
33.465

>  <Chirality>  (29) 
[(3, 'S'), (14, 'R'), (15, 'S'), (16, 'R')]

$$$$

     RDKit          3D

 47 47  0  0  0  0  0  0  0  0999 V2000
    6.4805   -1.2230   -1.9083 O   0  0  0  0  0  0  0  0  0  0  0  0
    6.5525   -0.7024   -0.8067 C   0  0  0  0  0  0  0  0  0  0  0  0
    7.7531   -0.2968   -0.3305 O   0  0  0  0  0  0  0  0  0  0  0  0
    5.3969   -0.4770    0.1836 C   0  0  1  0  0  0  0  0  0  0  0  0
    5.7560    0.5533    1.1859 N   0  0  0  0  0  0  0  0  0  0  0  0
    4.1251   -0.0810   -0.5796 C   0  0  0  0  0  0  0  0  0  0  0  0
    2.8918    0.2111    0.2856 C   0  0  0  0  0  0  0  0  0  0  0  0
    2.4543   -0.9774    1.1465 C   0  0  0  0  0  0  0  0  0  0  0  0
    1.1917   -0.6867    1.9585 C   0  0  0  0  0  0  0  0  0  0  0  0
    0.0129   -0.6040    1.1282 N   0  0  0  0  0  0  0  0  0  0  0  0
   -0.5904    0.5685    0.7894 C   0  0  0  0  0  0  0  0  0  0  0  0
   -0.2237    1.6801    1.1366 O   0  0  0  0  0  0  0  0  0  0  0  0
   -1.6520    0.2939   -0.0036 O   0  0  0  0  0  0  0  0  0  0  0  0
   -2.4262    1.4218   -0.4398 C   0  0  2  0  0  0  0  0  0  0  0  0
   -3.4956    1.7679    0.5677 C   0  0  0  0  0  0  0  0  0  0  0  0
   -4.3879    0.9527    1.1540 C   0  0  0  0  0  0  0  0  0  0  0  0
   -4.5209   -0.5192    0.9131 C   0  0  0  0  0  0  0  0  0  0  0  0
   -5.4721   -0.8471   -0.2351 C   0  0  0  0  0  0  0  0  0  0  0  0
   -5.2146   -0.1013   -1.5499 C   0  0  0  0  0  0  0  0  0  0  0  0
   -3.7698   -0.1596   -2.0561 C   0  0  0  0  0  0  0  0  0  0  0  0
   -2.9665    1.1359   -1.8520 C   0  0  0  0  0  0  0  0  0  0  0  0
    8.3767   -0.5233   -1.0526 H   0  0  0  0  0  0  0  0  0  0  0  0
    5.2537   -1.4278    0.7079 H   0  0  0  0  0  0  0  0  0  0  0  0
    6.7092    0.3470    1.5000 H   0  0  0  0  0  0  0  0  0  0  0  0
    5.8367    1.4544    0.7132 H   0  0  0  0  0  0  0  0  0  0  0  0
    3.8706   -0.8800   -1.2886 H   0  0  0  0  0  0  0  0  0  0  0  0
    4.3302    0.8060   -1.1945 H   0  0  0  0  0  0  0  0  0  0  0  0
    3.0792    1.0818    0.9249 H   0  0  0  0  0  0  0  0  0  0  0  0
    2.0759    0.4941   -0.3899 H   0  0  0  0  0  0  0  0  0  0  0  0
    3.2536   -1.2314    1.8514 H   0  0  0  0  0  0  0  0  0  0  0  0
    2.2923   -1.8550    0.5089 H   0  0  0  0  0  0  0  0  0  0  0  0
    1.0166   -1.5083    2.6612 H   0  0  0  0  0  0  0  0  0  0  0  0
    1.3092    0.2335    2.5409 H   0  0  0  0  0  0  0  0  0  0  0  0
   -0.4102   -1.4413    0.7548 H   0  0  0  0  0  0  0  0  0  0  0  0
   -1.7714    2.2982   -0.5398 H   0  0  0  0  0  0  0  0  0  0  0  0
   -3.5319    2.8239    0.8334 H   0  0  0  0  0  0  0  0  0  0  0  0
   -5.0993    1.3867    1.8547 H   0  0  0  0  0  0  0  0  0  0  0  0
   -3.5490   -0.9879    0.7369 H   0  0  0  0  0  0  0  0  0  0  0  0
   -4.8952   -0.9877    1.8320 H   0  0  0  0  0  0  0  0  0  0  0  0
   -5.4223   -1.9270   -0.4238 H   0  0  0  0  0  0  0  0  0  0  0  0
   -6.5038   -0.6417    0.0787 H   0  0  0  0  0  0  0  0  0  0  0  0
   -5.8618   -0.5630   -2.3075 H   0  0  0  0  0  0  0  0  0  0  0  0
   -5.5567    0.9373   -1.4696 H   0  0  0  0  0  0  0  0  0  0  0  0
   -3.2350   -1.0268   -1.6538 H   0  0  0  0  0  0  0  0  0  0  0  0
   -3.8189   -0.3217   -3.1416 H   0  0  0  0  0  0  0  0  0  0  0  0
   -3.5498    1.9938   -2.2097 H   0  0  0  0  0  0  0  0  0  0  0  0
   -2.0935    1.0607   -2.5152 H   0  0  0  0  0  0  0  0  0  0  0  0
  1  2  2  0
  2  3  1  0
  2  4  1  0
  4  5  1  0
  4  6  1  0
  6  7  1  0
  7  8  1  0
  8  9  1  0
  9 10  1  0
 10 11  1  0
 11 12  2  0
 11 13  1  0
 13 14  1  0
 14 15  1  0
 15 16  2  0
 16 17  1  0
 17 18  1  0
 18 19  1  0
 19 20  1  0
 20 21  1  0
 21 14  1  0
  3 22  1  0
  4 23  1  1
  5 24  1  0
  5 25  1  0
  6 26  1  0
  6 27  1  0
  7 28  1  0
  7 29  1  0
  8 30  1  0
  8 31  1  0
  9 32  1  0
  9 33  1  0
 10 34  1  0
 14 35  1  6
 15 36  1  0
 16 37  1  0
 17 38  1  0
 17 39  1  0
 18 40  1  0
 18 41  1  0
 19 42  1  0
 19 43  1  0
 20 44  1  0
 20 45  1  0
 21 46  1  0
 21 47  1  0
M  END
>  <Name>  (30) 
UA10_2TCOK

>  <canvasUID>  (30) 
30

>  <MW>  (30) 
298.3779

>  <AlogP>  (30) 
2.5337

>  <HBA>  (30) 
2

>  <HBD>  (30) 
1

>  <RB>  (30) 
8

>  <PSA>  (30) 
101.65

>  <Estate>  (30) 
54.5

>  <Polar>  (30) 
31.481

>  <Chirality>  (30) 
[(3, 'S'), (13, 'S')]

$$$$

     RDKit          3D

 47 47  0  0  0  0  0  0  0  0999 V2000
    7.3546    0.0593   -1.4219 O   0  0  0  0  0  0  0  0  0  0  0  0
    7.1611    0.0533   -0.2169 C   0  0  0  0  0  0  0  0  0  0  0  0
    8.1937    0.2626    0.6329 O   0  0  0  0  0  0  0  0  0  0  0  0
    5.8284   -0.2214    0.5006 C   0  0  1  0  0  0  0  0  0  0  0  0
    5.8608    0.2957    1.8887 N   0  0  0  0  0  0  0  0  0  0  0  0
    4.6697    0.4051   -0.2881 C   0  0  0  0  0  0  0  0  0  0  0  0
    3.2747    0.2224    0.3245 C   0  0  0  0  0  0  0  0  0  0  0  0
    2.8627   -1.2452    0.4751 C   0  0  0  0  0  0  0  0  0  0  0  0
    1.4379   -1.3942    1.0038 C   0  0  0  0  0  0  0  0  0  0  0  0
    0.4515   -0.9588    0.0430 N   0  0  0  0  0  0  0  0  0  0  0  0
   -0.8245   -0.6548    0.4089 C   0  0  0  0  0  0  0  0  0  0  0  0
   -1.2319   -0.5575    1.5555 O   0  0  0  0  0  0  0  0  0  0  0  0
   -1.5709   -0.4885   -0.7102 O   0  0  0  0  0  0  0  0  0  0  0  0
   -2.9726   -0.1754   -0.5004 C   0  0  1  0  0  0  0  0  0  0  0  0
   -3.0936    1.3363   -0.2380 C   0  0  0  0  0  0  0  0  0  0  0  0
   -3.9560    1.6774    0.9771 C   0  0  0  0  0  0  0  0  0  0  0  0
   -5.3772    1.1986    1.0394 C   0  0  0  0  0  0  0  0  0  0  0  0
   -6.1860    0.7130    0.0869 C   0  0  0  0  0  0  0  0  0  0  0  0
   -5.9314    0.5621   -1.3812 C   0  0  0  0  0  0  0  0  0  0  0  0
   -5.1975   -0.7295   -1.7297 C   0  0  0  0  0  0  0  0  0  0  0  0
   -3.6743   -0.6136   -1.7937 C   0  0  0  0  0  0  0  0  0  0  0  0
    8.9611    0.3960    0.0371 H   0  0  0  0  0  0  0  0  0  0  0  0
    5.7229   -1.3106    0.5440 H   0  0  0  0  0  0  0  0  0  0  0  0
    6.7502   -0.0045    2.2996 H   0  0  0  0  0  0  0  0  0  0  0  0
    5.9324    1.3134    1.8559 H   0  0  0  0  0  0  0  0  0  0  0  0
    4.6608   -0.0120   -1.3038 H   0  0  0  0  0  0  0  0  0  0  0  0
    4.8526    1.4813   -0.4117 H   0  0  0  0  0  0  0  0  0  0  0  0
    3.2235    0.7223    1.2990 H   0  0  0  0  0  0  0  0  0  0  0  0
    2.5562    0.7391   -0.3238 H   0  0  0  0  0  0  0  0  0  0  0  0
    3.5383   -1.7468    1.1768 H   0  0  0  0  0  0  0  0  0  0  0  0
    2.9572   -1.7567   -0.4905 H   0  0  0  0  0  0  0  0  0  0  0  0
    1.2307   -2.4494    1.2148 H   0  0  0  0  0  0  0  0  0  0  0  0
    1.3075   -0.8399    1.9401 H   0  0  0  0  0  0  0  0  0  0  0  0
    0.5643   -1.1789   -0.9366 H   0  0  0  0  0  0  0  0  0  0  0  0
   -3.3491   -0.7803    0.3336 H   0  0  0  0  0  0  0  0  0  0  0  0
   -3.4592    1.8701   -1.1211 H   0  0  0  0  0  0  0  0  0  0  0  0
   -2.0985    1.7634   -0.0546 H   0  0  0  0  0  0  0  0  0  0  0  0
   -3.4458    1.2809    1.8651 H   0  0  0  0  0  0  0  0  0  0  0  0
   -3.9660    2.7675    1.1016 H   0  0  0  0  0  0  0  0  0  0  0  0
   -5.7967    1.2486    2.0463 H   0  0  0  0  0  0  0  0  0  0  0  0
   -7.1834    0.4028    0.4024 H   0  0  0  0  0  0  0  0  0  0  0  0
   -6.9166    0.5342   -1.8665 H   0  0  0  0  0  0  0  0  0  0  0  0
   -5.4401    1.4437   -1.8028 H   0  0  0  0  0  0  0  0  0  0  0  0
   -5.4756   -1.5337   -1.0367 H   0  0  0  0  0  0  0  0  0  0  0  0
   -5.5366   -1.0547   -2.7220 H   0  0  0  0  0  0  0  0  0  0  0  0
   -3.3887    0.0576   -2.6147 H   0  0  0  0  0  0  0  0  0  0  0  0
   -3.2805   -1.5963   -2.0881 H   0  0  0  0  0  0  0  0  0  0  0  0
  1  2  2  0
  2  3  1  0
  2  4  1  0
  4  5  1  0
  4  6  1  0
  6  7  1  0
  7  8  1  0
  8  9  1  0
  9 10  1  0
 10 11  1  0
 11 12  2  0
 11 13  1  0
 13 14  1  0
 14 15  1  0
 15 16  1  0
 16 17  1  0
 17 18  2  0
 18 19  1  0
 19 20  1  0
 20 21  1  0
 21 14  1  0
  3 22  1  0
  4 23  1  1
  5 24  1  0
  5 25  1  0
  6 26  1  0
  6 27  1  0
  7 28  1  0
  7 29  1  0
  8 30  1  0
  8 31  1  0
  9 32  1  0
  9 33  1  0
 10 34  1  0
 14 35  1  1
 15 36  1  0
 15 37  1  0
 16 38  1  0
 16 39  1  0
 17 40  1  0
 18 41  1  0
 19 42  1  0
 19 43  1  0
 20 44  1  0
 20 45  1  0
 21 46  1  0
 21 47  1  0
M  END
>  <Name>  (31) 
UA11_4TCOK

>  <canvasUID>  (31) 
31

>  <MW>  (31) 
298.3779

>  <AlogP>  (31) 
2.3987

>  <HBA>  (31) 
2

>  <HBD>  (31) 
1

>  <RB>  (31) 
8

>  <PSA>  (31) 
101.65

>  <Estate>  (31) 
54.5

>  <Polar>  (31) 
31.481

>  <Chirality>  (31) 
[(3, 'S'), (13, 'R')]

$$$$

     RDKit          3D

 50 50  0  0  0  0  0  0  0  0999 V2000
    7.3560    2.1025    0.7449 O   0  0  0  0  0  0  0  0  0  0  0  0
    7.1208    1.0832    0.1129 C   0  0  0  0  0  0  0  0  0  0  0  0
    7.0465    1.1144   -1.2337 O   0  0  0  0  0  0  0  0  0  0  0  0
    6.9061   -0.3172    0.6938 C   0  0  1  0  0  0  0  0  0  0  0  0
    7.7383   -0.4669    1.9144 N   0  0  0  0  0  0  0  0  0  0  0  0
    5.4402   -0.5724    1.0733 C   0  0  0  0  0  0  0  0  0  0  0  0
    4.4795   -0.6677   -0.1205 C   0  0  0  0  0  0  0  0  0  0  0  0
    3.7840    0.6604   -0.4430 C   0  0  0  0  0  0  0  0  0  0  0  0
    2.8303    0.5446   -1.6334 C   0  0  0  0  0  0  0  0  0  0  0  0
    1.6886   -0.2944   -1.3529 N   0  0  0  0  0  0  0  0  0  0  0  0
    0.6025    0.1502   -0.6634 C   0  0  0  0  0  0  0  0  0  0  0  0
    0.4303    1.2938   -0.2737 O   0  0  0  0  0  0  0  0  0  0  0  0
   -0.2545   -0.8825   -0.4761 O   0  0  0  0  0  0  0  0  0  0  0  0
   -1.4402   -0.5662    0.2685 C   0  0  0  0  0  0  0  0  0  0  0  0
   -2.5022    0.0751   -0.6246 C   0  0  0  0  0  0  0  0  0  0  0  0
   -3.7230    0.2650    0.0873 O   0  0  0  0  0  0  0  0  0  0  0  0
   -4.6162   -0.8524    0.0468 C   0  0  1  0  0  0  0  0  0  0  0  0
   -5.3730   -0.8816    1.3523 C   0  0  0  0  0  0  0  0  0  0  0  0
   -6.1751    0.0859    1.8309 C   0  0  0  0  0  0  0  0  0  0  0  0
   -6.4390    1.3922    1.1445 C   0  0  0  0  0  0  0  0  0  0  0  0
   -7.6043    1.3149    0.3348 O   0  0  0  0  0  0  0  0  0  0  0  0
   -7.5216    0.3364   -0.6971 C   0  0  0  0  0  0  0  0  0  0  0  0
   -6.2949    0.3422   -1.4178 O   0  0  0  0  0  0  0  0  0  0  0  0
   -5.5083   -0.8394   -1.2237 C   0  0  0  0  0  0  0  0  0  0  0  0
    7.2259    2.0538   -1.4555 H   0  0  0  0  0  0  0  0  0  0  0  0
    7.2578   -1.0598   -0.0325 H   0  0  0  0  0  0  0  0  0  0  0  0
    8.7090   -0.2552    1.6758 H   0  0  0  0  0  0  0  0  0  0  0  0
    7.4696    0.2727    2.5706 H   0  0  0  0  0  0  0  0  0  0  0  0
    5.3922   -1.5343    1.6033 H   0  0  0  0  0  0  0  0  0  0  0  0
    5.0845    0.1878    1.7810 H   0  0  0  0  0  0  0  0  0  0  0  0
    5.0011   -1.0535   -1.0041 H   0  0  0  0  0  0  0  0  0  0  0  0
    3.7075   -1.4055    0.1320 H   0  0  0  0  0  0  0  0  0  0  0  0
    3.2355    1.0085    0.4410 H   0  0  0  0  0  0  0  0  0  0  0  0
    4.5275    1.4281   -0.6758 H   0  0  0  0  0  0  0  0  0  0  0  0
    2.4671    1.5423   -1.9036 H   0  0  0  0  0  0  0  0  0  0  0  0
    3.3439    0.1245   -2.5041 H   0  0  0  0  0  0  0  0  0  0  0  0
    1.7244   -1.2877   -1.5341 H   0  0  0  0  0  0  0  0  0  0  0  0
   -1.2122    0.0675    1.1349 H   0  0  0  0  0  0  0  0  0  0  0  0
   -1.8147   -1.5075    0.6849 H   0  0  0  0  0  0  0  0  0  0  0  0
   -2.1589    1.0635   -0.9492 H   0  0  0  0  0  0  0  0  0  0  0  0
   -2.6535   -0.5093   -1.5394 H   0  0  0  0  0  0  0  0  0  0  0  0
   -4.0263   -1.7782    0.0187 H   0  0  0  0  0  0  0  0  0  0  0  0
   -5.2594   -1.7875    1.9435 H   0  0  0  0  0  0  0  0  0  0  0  0
   -6.6853   -0.0651    2.7793 H   0  0  0  0  0  0  0  0  0  0  0  0
   -6.6214    2.1553    1.9099 H   0  0  0  0  0  0  0  0  0  0  0  0
   -5.5971    1.7639    0.5544 H   0  0  0  0  0  0  0  0  0  0  0  0
   -8.3106    0.5844   -1.4153 H   0  0  0  0  0  0  0  0  0  0  0  0
   -7.7787   -0.6514   -0.2955 H   0  0  0  0  0  0  0  0  0  0  0  0
   -4.8526   -0.8887   -2.0999 H   0  0  0  0  0  0  0  0  0  0  0  0
   -6.1462   -1.7313   -1.2648 H   0  0  0  0  0  0  0  0  0  0  0  0
  1  2  2  0
  2  3  1  0
  2  4  1  0
  4  5  1  0
  4  6  1  0
  6  7  1  0
  7  8  1  0
  8  9  1  0
  9 10  1  0
 10 11  1  0
 11 12  2  0
 11 13  1  0
 13 14  1  0
 14 15  1  0
 15 16  1  0
 16 17  1  0
 17 18  1  0
 18 19  2  0
 19 20  1  0
 20 21  1  0
 21 22  1  0
 22 23  1  0
 23 24  1  0
 24 17  1  0
  3 25  1  0
  4 26  1  6
  5 27  1  0
  5 28  1  0
  6 29  1  0
  6 30  1  0
  7 31  1  0
  7 32  1  0
  8 33  1  0
  8 34  1  0
  9 35  1  0
  9 36  1  0
 10 37  1  0
 14 38  1  0
 14 39  1  0
 15 40  1  0
 15 41  1  0
 17 42  1  6
 18 43  1  0
 19 44  1  0
 20 45  1  0
 20 46  1  0
 22 47  1  0
 22 48  1  0
 24 49  1  0
 24 50  1  0
M  END
>  <Name>  (32) 
UA12_DOTCOK

>  <canvasUID>  (32) 
32

>  <MW>  (32) 
346.3761

>  <AlogP>  (32) 
-0.0227

>  <HBA>  (32) 
5

>  <HBD>  (32) 
1

>  <RB>  (32) 
11

>  <PSA>  (32) 
129.34

>  <Estate>  (32) 
65

>  <Polar>  (32) 
33.392

>  <Chirality>  (32) 
[(3, 'S'), (16, 'S')]

$$$$

     RDKit          3D

 40 40  0  0  0  0  0  0  0  0999 V2000
   -6.0681    1.4654   -1.5744 O   0  0  0  0  0  0  0  0  0  0  0  0
   -5.6899    1.3558   -0.4173 C   0  0  0  0  0  0  0  0  0  0  0  0
   -5.6824    2.4261    0.4034 O   0  0  0  0  0  0  0  0  0  0  0  0
   -5.1418    0.0891    0.2499 C   0  0  1  0  0  0  0  0  0  0  0  0
   -5.7871   -1.0976   -0.3470 N   0  0  0  0  0  0  0  0  0  0  0  0
   -3.6135    0.0716    0.0923 C   0  0  0  0  0  0  0  0  0  0  0  0
   -2.9333   -1.0493    0.8868 C   0  0  0  0  0  0  0  0  0  0  0  0
   -1.4076   -0.9194    0.9240 C   0  0  0  0  0  0  0  0  0  0  0  0
   -0.7507   -1.0921   -0.4447 C   0  0  0  0  0  0  0  0  0  0  0  0
    0.6938   -1.0544   -0.3470 N   0  0  0  0  0  0  0  0  0  0  0  0
    1.3857    0.1384   -0.2948 C   0  0  0  0  0  0  0  0  0  0  0  0
    0.8461    1.2356   -0.3785 O   0  0  0  0  0  0  0  0  0  0  0  0
    2.8813   -0.0585   -0.1317 C   0  0  0  0  0  0  0  0  0  0  0  0
    3.6283    1.2719   -0.0446 C   0  0  0  0  0  0  0  0  0  0  0  0
    5.1468    1.1308    0.0911 C   0  0  1  0  0  0  0  0  0  0  0  0
    5.6765    0.1189    1.0907 C   0  0  0  0  0  0  0  0  0  0  0  0
    6.3600   -0.5754    0.1626 C   0  0  0  0  0  0  0  0  0  0  0  0
    5.9339    0.3251   -0.9764 C   0  0  0  0  0  0  0  0  0  0  0  0
   -6.0471    3.1468   -0.1517 H   0  0  0  0  0  0  0  0  0  0  0  0
   -5.4194    0.1175    1.3097 H   0  0  0  0  0  0  0  0  0  0  0  0
   -5.2934   -1.9454   -0.0833 H   0  0  0  0  0  0  0  0  0  0  0  0
   -5.7279   -1.0218   -1.3651 H   0  0  0  0  0  0  0  0  0  0  0  0
   -3.3570   -0.0139   -0.9712 H   0  0  0  0  0  0  0  0  0  0  0  0
   -3.2103    1.0372    0.4249 H   0  0  0  0  0  0  0  0  0  0  0  0
   -3.1989   -2.0277    0.4709 H   0  0  0  0  0  0  0  0  0  0  0  0
   -3.3018   -1.0310    1.9198 H   0  0  0  0  0  0  0  0  0  0  0  0
   -1.0113   -1.6809    1.6080 H   0  0  0  0  0  0  0  0  0  0  0  0
   -1.1311    0.0506    1.3551 H   0  0  0  0  0  0  0  0  0  0  0  0
   -1.0176   -2.0608   -0.8796 H   0  0  0  0  0  0  0  0  0  0  0  0
   -1.0715   -0.3056   -1.1351 H   0  0  0  0  0  0  0  0  0  0  0  0
    1.1897   -1.9166   -0.1607 H   0  0  0  0  0  0  0  0  0  0  0  0
    3.0447   -0.6477    0.7779 H   0  0  0  0  0  0  0  0  0  0  0  0
    3.2357   -0.6461   -0.9853 H   0  0  0  0  0  0  0  0  0  0  0  0
    3.2457    1.8424    0.8118 H   0  0  0  0  0  0  0  0  0  0  0  0
    3.4077    1.8756   -0.9341 H   0  0  0  0  0  0  0  0  0  0  0  0
    5.5701    2.1385    0.2214 H   0  0  0  0  0  0  0  0  0  0  0  0
    5.5501    0.0149    2.1648 H   0  0  0  0  0  0  0  0  0  0  0  0
    6.9951   -1.4559    0.1999 H   0  0  0  0  0  0  0  0  0  0  0  0
    6.7371    0.8916   -1.4620 H   0  0  0  0  0  0  0  0  0  0  0  0
    5.3334   -0.1441   -1.7624 H   0  0  0  0  0  0  0  0  0  0  0  0
  1  2  2  0
  2  3  1  0
  2  4  1  0
  4  5  1  0
  4  6  1  0
  6  7  1  0
  7  8  1  0
  8  9  1  0
  9 10  1  0
 10 11  1  0
 11 12  2  0
 11 13  1  0
 13 14  1  0
 14 15  1  0
 15 16  1  0
 16 17  2  0
 17 18  1  0
 18 15  1  0
  3 19  1  0
  4 20  1  1
  5 21  1  0
  5 22  1  0
  6 23  1  0
  6 24  1  0
  7 25  1  0
  7 26  1  0
  8 27  1  0
  8 28  1  0
  9 29  1  0
  9 30  1  0
 10 31  1  0
 13 32  1  0
 13 33  1  0
 14 34  1  0
 14 35  1  0
 15 36  1  1
 16 37  1  0
 17 38  1  0
 18 39  1  0
 18 40  1  0
M  END
>  <Name>  (33) 
UA13_CbK

>  <canvasUID>  (33) 
33

>  <MW>  (33) 
254.3254

>  <AlogP>  (33) 
0.706

>  <HBA>  (33) 
1

>  <HBD>  (33) 
1

>  <RB>  (33) 
9

>  <PSA>  (33) 
92.42

>  <Estate>  (33) 
48

>  <Polar>  (33) 
27.174

>  <Chirality>  (33) 
[(3, 'S'), (14, 'R')]

$$$$

     RDKit          3D

 42 43  0  0  0  0  0  0  0  0999 V2000
    6.2426    1.5053    1.0009 O   0  0  0  0  0  0  0  0  0  0  0  0
    6.4587    0.4060    0.5167 C   0  0  0  0  0  0  0  0  0  0  0  0
    7.6138   -0.2434    0.8004 O   0  0  0  0  0  0  0  0  0  0  0  0
    5.5820   -0.3568   -0.4896 C   0  0  1  0  0  0  0  0  0  0  0  0
    5.6652   -1.8107   -0.2351 N   0  0  0  0  0  0  0  0  0  0  0  0
    4.1260    0.1246   -0.4105 C   0  0  0  0  0  0  0  0  0  0  0  0
    3.2238   -0.4959   -1.4835 C   0  0  0  0  0  0  0  0  0  0  0  0
    1.8212    0.1175   -1.5175 C   0  0  0  0  0  0  0  0  0  0  0  0
    0.9998   -0.1797   -0.2665 C   0  0  0  0  0  0  0  0  0  0  0  0
   -0.3390    0.3509   -0.3885 N   0  0  0  0  0  0  0  0  0  0  0  0
   -1.3669   -0.1104    0.3772 C   0  0  0  0  0  0  0  0  0  0  0  0
   -1.3328   -1.0962    1.0961 O   0  0  0  0  0  0  0  0  0  0  0  0
   -2.4318    0.7128    0.2197 O   0  0  0  0  0  0  0  0  0  0  0  0
   -3.5962    0.3524    0.9786 C   0  0  2  0  0  0  0  0  0  0  0  0
   -4.3688   -0.8243    0.3089 C   0  0  0  0  0  0  0  0  0  0  0  0
   -5.7340   -0.1870   -0.0269 C   0  0  2  0  0  0  0  0  0  0  0  0
   -5.3067    1.2226   -0.4403 C   0  0  0  0  0  0  0  0  0  0  0  0
   -6.4322    0.1496    1.2720 C   0  0  0  0  0  0  0  0  0  0  0  0
   -5.7706    1.1771    1.8265 C   0  0  0  0  0  0  0  0  0  0  0  0
   -4.6222    1.5121    0.9020 C   0  0  1  0  0  0  0  0  0  0  0  0
    8.0528    0.3448    1.4498 H   0  0  0  0  0  0  0  0  0  0  0  0
    5.9955   -0.1440   -1.4827 H   0  0  0  0  0  0  0  0  0  0  0  0
    6.6517   -2.0412   -0.0849 H   0  0  0  0  0  0  0  0  0  0  0  0
    5.3775   -2.3187   -1.0692 H   0  0  0  0  0  0  0  0  0  0  0  0
    3.7254   -0.0896    0.5883 H   0  0  0  0  0  0  0  0  0  0  0  0
    4.1037    1.2167   -0.5207 H   0  0  0  0  0  0  0  0  0  0  0  0
    3.1390   -1.5781   -1.3317 H   0  0  0  0  0  0  0  0  0  0  0  0
    3.6860   -0.3475   -2.4672 H   0  0  0  0  0  0  0  0  0  0  0  0
    1.2917   -0.2786   -2.3936 H   0  0  0  0  0  0  0  0  0  0  0  0
    1.8928    1.2020   -1.6681 H   0  0  0  0  0  0  0  0  0  0  0  0
    0.9432   -1.2593   -0.0880 H   0  0  0  0  0  0  0  0  0  0  0  0
    1.4448    0.2842    0.6197 H   0  0  0  0  0  0  0  0  0  0  0  0
   -0.4820    1.2786   -0.7624 H   0  0  0  0  0  0  0  0  0  0  0  0
   -3.3202    0.1358    2.0188 H   0  0  0  0  0  0  0  0  0  0  0  0
   -3.8661   -1.1696   -0.6013 H   0  0  0  0  0  0  0  0  0  0  0  0
   -4.4756   -1.6716    0.9951 H   0  0  0  0  0  0  0  0  0  0  0  0
   -6.3466   -0.7219   -0.7531 H   0  0  0  0  0  0  0  0  0  0  0  0
   -4.6200    1.2352   -1.2941 H   0  0  0  0  0  0  0  0  0  0  0  0
   -6.1509    1.8912   -0.6524 H   0  0  0  0  0  0  0  0  0  0  0  0
   -7.2780   -0.3761    1.6892 H   0  0  0  0  0  0  0  0  0  0  0  0
   -5.9743    1.6407    2.7797 H   0  0  0  0  0  0  0  0  0  0  0  0
   -4.2223    2.5232    0.9881 H   0  0  0  0  0  0  0  0  0  0  0  0
  1  2  2  0
  2  3  1  0
  2  4  1  0
  4  5  1  0
  4  6  1  0
  6  7  1  0
  7  8  1  0
  8  9  1  0
  9 10  1  0
 10 11  1  0
 11 12  2  0
 11 13  1  0
 13 14  1  0
 14 15  1  0
 15 16  1  0
 16 17  1  0
 16 18  1  0
 18 19  2  0
 19 20  1  0
 20 14  1  0
 20 17  1  0
  3 21  1  0
  4 22  1  6
  5 23  1  0
  5 24  1  0
  6 25  1  0
  6 26  1  0
  7 27  1  0
  7 28  1  0
  8 29  1  0
  8 30  1  0
  9 31  1  0
  9 32  1  0
 10 33  1  0
 14 34  1  1
 15 35  1  0
 15 36  1  0
 16 37  1  6
 17 38  1  0
 17 39  1  0
 18 40  1  0
 19 41  1  0
 20 42  1  6
M  END
>  <Name>  (34) 
UA14_NBOK

>  <canvasUID>  (34) 
34

>  <MW>  (34) 
282.3355

>  <AlogP>  (34) 
1.2296

>  <HBA>  (34) 
2

>  <HBD>  (34) 
1

>  <RB>  (34) 
8

>  <PSA>  (34) 
101.65

>  <Estate>  (34) 
52.666

>  <Polar>  (34) 
28.872

>  <Chirality>  (34) 
[(3, 'S'), (13, 'R'), (15, 'S'), (19, 'S')]

$$$$

     RDKit          3D

 45 45  0  0  0  0  0  0  0  0999 V2000
    6.3613   -2.5262   -0.4779 O   0  0  0  0  0  0  0  0  0  0  0  0
    6.3767   -1.8074    0.5087 C   0  0  0  0  0  0  0  0  0  0  0  0
    7.2402   -0.7682    0.5703 O   0  0  0  0  0  0  0  0  0  0  0  0
    5.4646   -1.9295    1.7403 C   0  0  1  0  0  0  0  0  0  0  0  0
    6.0031   -1.1321    2.8713 N   0  0  0  0  0  0  0  0  0  0  0  0
    4.0455   -1.4377    1.4250 C   0  0  0  0  0  0  0  0  0  0  0  0
    3.2836   -2.3858    0.4900 C   0  0  0  0  0  0  0  0  0  0  0  0
    1.8133   -1.9987    0.3056 C   0  0  0  0  0  0  0  0  0  0  0  0
    1.6261   -0.6863   -0.4535 C   0  0  0  0  0  0  0  0  0  0  0  0
    0.2302   -0.4239   -0.7150 N   0  0  0  0  0  0  0  0  0  0  0  0
   -0.5917    0.1803    0.1874 C   0  0  0  0  0  0  0  0  0  0  0  0
   -0.2468    0.6091    1.2770 O   0  0  0  0  0  0  0  0  0  0  0  0
   -1.8455    0.2098   -0.3170 O   0  0  0  0  0  0  0  0  0  0  0  0
   -2.8285    0.8528    0.5080 C   0  0  1  0  0  0  0  0  0  0  0  0
   -2.9904    2.2418    0.0872 C   0  0  0  0  0  0  0  0  0  0  0  0
   -3.5097    3.1485   -0.4962 C   0  0  0  0  0  0  0  0  0  0  0  0
   -4.5098    3.7615   -1.3583 C   0  0  0  0  0  0  0  0  0  0  0  0
   -5.1897    2.6531   -2.1872 C   0  0  0  0  0  0  0  0  0  0  0  0
   -5.7532    1.4618   -1.3729 C   0  0  0  0  0  0  0  0  0  0  0  0
   -4.7898    0.2656   -1.1468 C   0  0  0  0  0  0  0  0  0  0  0  0
   -4.1811    0.1317    0.2752 C   0  0  0  0  0  0  0  0  0  0  0  0
    7.7298   -0.8201   -0.2776 H   0  0  0  0  0  0  0  0  0  0  0  0
    5.4606   -2.9791    2.0534 H   0  0  0  0  0  0  0  0  0  0  0  0
    6.9532   -1.4538    3.0624 H   0  0  0  0  0  0  0  0  0  0  0  0
    6.1314   -0.1732    2.5371 H   0  0  0  0  0  0  0  0  0  0  0  0
    3.4764   -1.3457    2.3596 H   0  0  0  0  0  0  0  0  0  0  0  0
    4.0931   -0.4372    0.9778 H   0  0  0  0  0  0  0  0  0  0  0  0
    3.7679   -2.4260   -0.4916 H   0  0  0  0  0  0  0  0  0  0  0  0
    3.3199   -3.4007    0.9048 H   0  0  0  0  0  0  0  0  0  0  0  0
    1.3176   -1.9431    1.2826 H   0  0  0  0  0  0  0  0  0  0  0  0
    1.3111   -2.8035   -0.2465 H   0  0  0  0  0  0  0  0  0  0  0  0
    2.0377    0.1544    0.1142 H   0  0  0  0  0  0  0  0  0  0  0  0
    2.1318   -0.7272   -1.4237 H   0  0  0  0  0  0  0  0  0  0  0  0
   -0.2117   -0.7788   -1.5511 H   0  0  0  0  0  0  0  0  0  0  0  0
   -2.5797    0.7756    1.5727 H   0  0  0  0  0  0  0  0  0  0  0  0
   -5.2616    4.2824   -0.7550 H   0  0  0  0  0  0  0  0  0  0  0  0
   -4.0552    4.4984   -2.0283 H   0  0  0  0  0  0  0  0  0  0  0  0
   -4.4952    2.2786   -2.9499 H   0  0  0  0  0  0  0  0  0  0  0  0
   -6.0200    3.1205   -2.7321 H   0  0  0  0  0  0  0  0  0  0  0  0
   -6.5928    1.0684   -1.9626 H   0  0  0  0  0  0  0  0  0  0  0  0
   -6.1897    1.8066   -0.4286 H   0  0  0  0  0  0  0  0  0  0  0  0
   -4.0099    0.2329   -1.9159 H   0  0  0  0  0  0  0  0  0  0  0  0
   -5.3923   -0.6410   -1.2978 H   0  0  0  0  0  0  0  0  0  0  0  0
   -4.0145   -0.9383    0.4579 H   0  0  0  0  0  0  0  0  0  0  0  0
   -4.9161    0.4691    1.0168 H   0  0  0  0  0  0  0  0  0  0  0  0
  1  2  2  0
  2  3  1  0
  2  4  1  0
  4  5  1  0
  4  6  1  0
  6  7  1  0
  7  8  1  0
  8  9  1  0
  9 10  1  0
 10 11  1  0
 11 12  2  0
 11 13  1  0
 13 14  1  0
 14 15  1  0
 15 16  3  0
 16 17  1  0
 17 18  1  0
 18 19  1  0
 19 20  1  0
 20 21  1  0
 21 14  1  0
  3 22  1  0
  4 23  1  1
  5 24  1  0
  5 25  1  0
  6 26  1  0
  6 27  1  0
  7 28  1  0
  7 29  1  0
  8 30  1  0
  8 31  1  0
  9 32  1  0
  9 33  1  0
 10 34  1  0
 14 35  1  1
 17 36  1  0
 17 37  1  0
 18 38  1  0
 18 39  1  0
 19 40  1  0
 19 41  1  0
 20 42  1  0
 20 43  1  0
 21 44  1  0
 21 45  1  0
M  END
>  <Name>  (35) 
UA15_SCOK

>  <canvasUID>  (35) 
35

>  <MW>  (35) 
296.3621

>  <AlogP>  (35) 
2.6563

>  <HBA>  (35) 
2

>  <HBD>  (35) 
1

>  <RB>  (35) 
8

>  <PSA>  (35) 
101.65

>  <Estate>  (35) 
55.5

>  <Polar>  (35) 
30.569

>  <Chirality>  (35) 
[(3, 'S'), (13, 'R')]

$$$$

     RDKit          3D

 46 48  0  0  0  0  0  0  0  0999 V2000
    7.7612   -0.9853    0.9705 O   0  0  0  0  0  0  0  0  0  0  0  0
    7.2276    0.0742    0.6837 C   0  0  0  0  0  0  0  0  0  0  0  0
    7.9931    1.1597    0.4214 O   0  0  0  0  0  0  0  0  0  0  0  0
    5.7188    0.3606    0.6210 C   0  0  1  0  0  0  0  0  0  0  0  0
    5.4577    1.6136   -0.1420 N   0  0  0  0  0  0  0  0  0  0  0  0
    4.9849   -0.8419    0.0002 C   0  0  0  0  0  0  0  0  0  0  0  0
    3.5208   -0.9071    0.3730 C   0  0  0  0  0  0  0  0  0  0  0  0
    2.5775   -0.1044   -0.2794 C   0  0  0  0  0  0  0  0  0  0  0  0
    1.2241   -0.1581    0.0733 C   0  0  0  0  0  0  0  0  0  0  0  0
    0.7965   -1.0168    1.0850 C   0  0  0  0  0  0  0  0  0  0  0  0
    1.7350   -1.8159    1.7408 C   0  0  0  0  0  0  0  0  0  0  0  0
    3.0867   -1.7628    1.3919 C   0  0  0  0  0  0  0  0  0  0  0  0
   -0.4895   -1.1673    1.5256 O   0  0  0  0  0  0  0  0  0  0  0  0
   -1.4908   -0.3843    0.8770 C   0  0  0  0  0  0  0  0  0  0  0  0
   -2.8434   -0.7040    1.5118 C   0  0  0  0  0  0  0  0  0  0  0  0
   -3.9133    0.0904    0.9983 O   0  0  0  0  0  0  0  0  0  0  0  0
   -4.2925   -0.2364   -0.3395 C   0  0  1  0  0  0  0  0  0  0  0  0
   -5.8422   -0.1231   -0.4672 C   0  0  0  0  0  0  0  0  0  0  0  0
   -6.0192    0.9771   -1.5342 C   0  0  1  0  0  0  0  0  0  0  0  0
   -4.8796    1.9278   -1.1668 C   0  0  0  0  0  0  0  0  0  0  0  0
   -5.4777    0.4543   -2.8470 C   0  0  0  0  0  0  0  0  0  0  0  0
   -4.1424    0.3863   -2.7296 C   0  0  0  0  0  0  0  0  0  0  0  0
   -3.8000    0.8505   -1.3322 C   0  0  2  0  0  0  0  0  0  0  0  0
    8.9105    0.8304    0.5313 H   0  0  0  0  0  0  0  0  0  0  0  0
    5.3935    0.5234    1.6554 H   0  0  0  0  0  0  0  0  0  0  0  0
    6.0616    2.3363    0.2602 H   0  0  0  0  0  0  0  0  0  0  0  0
    5.8151    1.4929   -1.0903 H   0  0  0  0  0  0  0  0  0  0  0  0
    5.4588   -1.7828    0.3093 H   0  0  0  0  0  0  0  0  0  0  0  0
    5.0796   -0.8318   -1.0944 H   0  0  0  0  0  0  0  0  0  0  0  0
    2.8935    0.5810   -1.0634 H   0  0  0  0  0  0  0  0  0  0  0  0
    0.5369    0.4895   -0.4600 H   0  0  0  0  0  0  0  0  0  0  0  0
    1.4112   -2.4862    2.5332 H   0  0  0  0  0  0  0  0  0  0  0  0
    3.7940   -2.3961    1.9225 H   0  0  0  0  0  0  0  0  0  0  0  0
   -1.2849    0.6865    0.9957 H   0  0  0  0  0  0  0  0  0  0  0  0
   -1.5206   -0.6267   -0.1914 H   0  0  0  0  0  0  0  0  0  0  0  0
   -2.7850   -0.5075    2.5887 H   0  0  0  0  0  0  0  0  0  0  0  0
   -3.0827   -1.7705    1.4173 H   0  0  0  0  0  0  0  0  0  0  0  0
   -3.9602   -1.2455   -0.6146 H   0  0  0  0  0  0  0  0  0  0  0  0
   -6.2850   -1.0723   -0.7891 H   0  0  0  0  0  0  0  0  0  0  0  0
   -6.3015    0.1720    0.4830 H   0  0  0  0  0  0  0  0  0  0  0  0
   -7.0081    1.4325   -1.5935 H   0  0  0  0  0  0  0  0  0  0  0  0
   -4.7680    2.7673   -1.8651 H   0  0  0  0  0  0  0  0  0  0  0  0
   -4.9529    2.3211   -0.1468 H   0  0  0  0  0  0  0  0  0  0  0  0
   -6.0691    0.1559   -3.6996 H   0  0  0  0  0  0  0  0  0  0  0  0
   -3.4447    0.0191   -3.4667 H   0  0  0  0  0  0  0  0  0  0  0  0
   -2.7853    1.2243   -1.1947 H   0  0  0  0  0  0  0  0  0  0  0  0
  1  2  2  0
  2  3  1  0
  2  4  1  0
  4  5  1  0
  4  6  1  0
  6  7  1  0
  7  8  2  0
  8  9  1  0
  9 10  2  0
 10 11  1  0
 11 12  2  0
 10 13  1  0
 13 14  1  0
 14 15  1  0
 15 16  1  0
 16 17  1  0
 17 18  1  0
 18 19  1  0
 19 20  1  0
 19 21  1  0
 21 22  2  0
 22 23  1  0
 12  7  1  0
 23 17  1  0
 23 20  1  0
  3 24  1  0
  4 25  1  1
  5 26  1  0
  5 27  1  0
  6 28  1  0
  6 29  1  0
  8 30  1  0
  9 31  1  0
 11 32  1  0
 12 33  1  0
 14 34  1  0
 14 35  1  0
 15 36  1  0
 15 37  1  0
 17 38  1  6
 18 39  1  0
 18 40  1  0
 19 41  1  6
 20 42  1  0
 20 43  1  0
 21 44  1  0
 22 45  1  0
 23 46  1  6
M  END
>  <Name>  (36) 
UA16_NOR

>  <canvasUID>  (36) 
36

>  <MW>  (36) 
317.3795

>  <AlogP>  (36) 
1.8583

>  <HBA>  (36) 
2

>  <HBD>  (36) 
0

>  <RB>  (36) 
8

>  <PSA>  (36) 
81.78

>  <Estate>  (36) 
54.833

>  <Polar>  (36) 
37.326

>  <Chirality>  (36) 
[(3, 'S'), (16, 'S'), (18, 'R'), (22, 'R')]

$$$$

     RDKit          3D

 49 50  0  0  0  0  0  0  0  0999 V2000
    4.2997   -2.9034    4.1788 O   0  0  0  0  0  0  0  0  0  0  0  0
    5.0316   -2.4970    3.2896 C   0  0  0  0  0  0  0  0  0  0  0  0
    5.6970   -3.3797    2.5089 O   0  0  0  0  0  0  0  0  0  0  0  0
    5.3445   -1.0305    2.9638 C   0  0  1  0  0  0  0  0  0  0  0  0
    6.1086   -0.9013    1.6931 N   0  0  0  0  0  0  0  0  0  0  0  0
    4.0671   -0.1707    2.9790 C   0  0  0  0  0  0  0  0  0  0  0  0
    3.0637   -0.4801    1.8885 C   0  0  0  0  0  0  0  0  0  0  0  0
    2.0647   -1.4395    2.0855 C   0  0  0  0  0  0  0  0  0  0  0  0
    1.1538   -1.7283    1.0667 C   0  0  0  0  0  0  0  0  0  0  0  0
    1.2188   -1.0647   -0.1597 C   0  0  0  0  0  0  0  0  0  0  0  0
    2.2098   -0.1054   -0.3613 C   0  0  0  0  0  0  0  0  0  0  0  0
    3.1245    0.1855    0.6570 C   0  0  0  0  0  0  0  0  0  0  0  0
    0.2719   -1.4490   -1.0674 O   0  0  0  0  0  0  0  0  0  0  0  0
    0.2119   -0.7209   -2.2954 C   0  0  0  0  0  0  0  0  0  0  0  0
   -0.9584   -1.2507   -3.1300 C   0  0  0  0  0  0  0  0  0  0  0  0
   -2.2468   -1.0366   -2.5463 O   0  0  0  0  0  0  0  0  0  0  0  0
   -2.7062    0.3140   -2.5897 C   0  0  2  0  0  0  0  0  0  0  0  0
   -2.3956    1.0162   -1.3499 C   0  0  0  0  0  0  0  0  0  0  0  0
   -2.6165    1.7446   -0.4267 C   0  0  0  0  0  0  0  0  0  0  0  0
   -3.4371    2.6311    0.3853 C   0  0  0  0  0  0  0  0  0  0  0  0
   -4.6050    3.1475   -0.4794 C   0  0  0  0  0  0  0  0  0  0  0  0
   -5.4407    2.0562   -1.1943 C   0  0  0  0  0  0  0  0  0  0  0  0
   -4.9671    1.6439   -2.6141 C   0  0  0  0  0  0  0  0  0  0  0  0
   -4.2489    0.2770   -2.7247 C   0  0  0  0  0  0  0  0  0  0  0  0
    5.3919   -4.2532    2.8333 H   0  0  0  0  0  0  0  0  0  0  0  0
    6.0086   -0.6836    3.7646 H   0  0  0  0  0  0  0  0  0  0  0  0
    6.8502   -1.6072    1.7207 H   0  0  0  0  0  0  0  0  0  0  0  0
    5.5017   -1.2265    0.9363 H   0  0  0  0  0  0  0  0  0  0  0  0
    3.5664   -0.2707    3.9515 H   0  0  0  0  0  0  0  0  0  0  0  0
    4.3455    0.8896    2.9079 H   0  0  0  0  0  0  0  0  0  0  0  0
    1.9802   -1.9681    3.0331 H   0  0  0  0  0  0  0  0  0  0  0  0
    0.3793   -2.4736    1.2327 H   0  0  0  0  0  0  0  0  0  0  0  0
    2.3020    0.4352   -1.2968 H   0  0  0  0  0  0  0  0  0  0  0  0
    3.8921    0.9373    0.4808 H   0  0  0  0  0  0  0  0  0  0  0  0
    1.1379   -0.8857   -2.8592 H   0  0  0  0  0  0  0  0  0  0  0  0
    0.0888    0.3483   -2.0987 H   0  0  0  0  0  0  0  0  0  0  0  0
   -0.8533   -2.3363   -3.2339 H   0  0  0  0  0  0  0  0  0  0  0  0
   -0.9387   -0.8230   -4.1389 H   0  0  0  0  0  0  0  0  0  0  0  0
   -2.2905    0.8420   -3.4565 H   0  0  0  0  0  0  0  0  0  0  0  0
   -2.8522    3.4772    0.7603 H   0  0  0  0  0  0  0  0  0  0  0  0
   -3.8329    2.0919    1.2531 H   0  0  0  0  0  0  0  0  0  0  0  0
   -4.2313    3.8649   -1.2210 H   0  0  0  0  0  0  0  0  0  0  0  0
   -5.2729    3.7121    0.1838 H   0  0  0  0  0  0  0  0  0  0  0  0
   -6.4444    2.4851   -1.3211 H   0  0  0  0  0  0  0  0  0  0  0  0
   -5.5713    1.1808   -0.5478 H   0  0  0  0  0  0  0  0  0  0  0  0
   -5.8768    1.5536   -3.2240 H   0  0  0  0  0  0  0  0  0  0  0  0
   -4.3732    2.4367   -3.0832 H   0  0  0  0  0  0  0  0  0  0  0  0
   -4.4737   -0.1540   -3.7101 H   0  0  0  0  0  0  0  0  0  0  0  0
   -4.6787   -0.4308   -2.0030 H   0  0  0  0  0  0  0  0  0  0  0  0
  1  2  2  0
  2  3  1  0
  2  4  1  0
  4  5  1  0
  4  6  1  0
  6  7  1  0
  7  8  2  0
  8  9  1  0
  9 10  2  0
 10 11  1  0
 11 12  2  0
 10 13  1  0
 13 14  1  0
 14 15  1  0
 15 16  1  0
 16 17  1  0
 17 18  1  0
 18 19  3  0
 19 20  1  0
 20 21  1  0
 21 22  1  0
 22 23  1  0
 23 24  1  0
 12  7  1  0
 24 17  1  0
  3 25  1  0
  4 26  1  1
  5 27  1  0
  5 28  1  0
  6 29  1  0
  6 30  1  0
  8 31  1  0
  9 32  1  0
 11 33  1  0
 12 34  1  0
 14 35  1  0
 14 36  1  0
 15 37  1  0
 15 38  1  0
 17 39  1  6
 20 40  1  0
 20 41  1  0
 21 42  1  0
 21 43  1  0
 22 44  1  0
 22 45  1  0
 23 46  1  0
 23 47  1  0
 24 48  1  0
 24 49  1  0
M  END
>  <Name>  (37) 
UA17_COY

>  <canvasUID>  (37) 
37

>  <MW>  (37) 
331.4061

>  <AlogP>  (37) 
3.285

>  <HBA>  (37) 
2

>  <HBD>  (37) 
0

>  <RB>  (37) 
8

>  <PSA>  (37) 
81.78

>  <Estate>  (37) 
57.667

>  <Polar>  (37) 
39.023

>  <Chirality>  (37) 
[(3, 'S'), (16, 'S')]

$$$$

     RDKit          3D

 51 52  0  0  0  0  0  0  0  0999 V2000
   -6.7529   -3.1328   -1.5661 O   0  0  0  0  0  0  0  0  0  0  0  0
   -5.8045   -3.0189   -0.8038 C   0  0  0  0  0  0  0  0  0  0  0  0
   -5.5298   -3.9899    0.0899 O   0  0  0  0  0  0  0  0  0  0  0  0
   -4.8178   -1.8489   -0.7483 C   0  0  1  0  0  0  0  0  0  0  0  0
   -5.0026   -0.9899   -1.9482 N   0  0  0  0  0  0  0  0  0  0  0  0
   -5.0375   -1.0595    0.5532 C   0  0  0  0  0  0  0  0  0  0  0  0
   -3.8350   -0.2415    0.9639 C   0  0  0  0  0  0  0  0  0  0  0  0
   -2.9148   -0.7461    1.8914 C   0  0  0  0  0  0  0  0  0  0  0  0
   -1.7949    0.0044    2.2703 C   0  0  0  0  0  0  0  0  0  0  0  0
   -1.5772    1.2671    1.7215 C   0  0  0  0  0  0  0  0  0  0  0  0
   -2.4927    1.7702    0.7948 C   0  0  0  0  0  0  0  0  0  0  0  0
   -3.6105    1.0242    0.4143 C   0  0  0  0  0  0  0  0  0  0  0  0
   -0.5336    2.1050    1.9954 O   0  0  0  0  0  0  0  0  0  0  0  0
    0.5442    1.6320    2.8100 C   0  0  0  0  0  0  0  0  0  0  0  0
    1.5236    0.7730    2.0081 C   0  0  0  0  0  0  0  0  0  0  0  0
    2.2680    1.6094    1.1149 O   0  0  0  0  0  0  0  0  0  0  0  0
    3.0064    0.8659    0.1246 C   0  0  1  0  0  0  0  0  0  0  0  0
    2.0906    0.7289   -1.1106 C   0  0  0  0  0  0  0  0  0  0  0  0
    2.5489   -0.2759   -2.1673 C   0  0  0  0  0  0  0  0  0  0  0  0
    3.6833    0.2005   -3.0260 C   0  0  0  0  0  0  0  0  0  0  0  0
    4.9781    0.1912   -2.6759 C   0  0  0  0  0  0  0  0  0  0  0  0
    5.4948   -0.2790   -1.3514 C   0  0  0  0  0  0  0  0  0  0  0  0
    5.5646    0.8455   -0.3210 C   0  0  0  0  0  0  0  0  0  0  0  0
    4.2875    1.6788   -0.1368 C   0  0  0  0  0  0  0  0  0  0  0  0
   -6.2199   -4.6675   -0.0736 H   0  0  0  0  0  0  0  0  0  0  0  0
   -3.8066   -2.2704   -0.7949 H   0  0  0  0  0  0  0  0  0  0  0  0
   -4.8568   -1.5668   -2.7786 H   0  0  0  0  0  0  0  0  0  0  0  0
   -5.9889   -0.7233   -1.9986 H   0  0  0  0  0  0  0  0  0  0  0  0
   -5.9122   -0.4004    0.4640 H   0  0  0  0  0  0  0  0  0  0  0  0
   -5.2901   -1.7387    1.3784 H   0  0  0  0  0  0  0  0  0  0  0  0
   -3.0634   -1.7301    2.3312 H   0  0  0  0  0  0  0  0  0  0  0  0
   -1.1194   -0.4321    2.9964 H   0  0  0  0  0  0  0  0  0  0  0  0
   -2.3291    2.7521    0.3569 H   0  0  0  0  0  0  0  0  0  0  0  0
   -4.2986    1.4352   -0.3212 H   0  0  0  0  0  0  0  0  0  0  0  0
    1.0656    2.5273    3.1681 H   0  0  0  0  0  0  0  0  0  0  0  0
    0.1733    1.1132    3.7000 H   0  0  0  0  0  0  0  0  0  0  0  0
    2.2339    0.2951    2.6913 H   0  0  0  0  0  0  0  0  0  0  0  0
    0.9944   -0.0020    1.4458 H   0  0  0  0  0  0  0  0  0  0  0  0
    3.2614   -0.1183    0.5364 H   0  0  0  0  0  0  0  0  0  0  0  0
    1.0945    0.4136   -0.7743 H   0  0  0  0  0  0  0  0  0  0  0  0
    1.9280    1.7162   -1.5636 H   0  0  0  0  0  0  0  0  0  0  0  0
    2.7844   -1.2399   -1.7021 H   0  0  0  0  0  0  0  0  0  0  0  0
    1.7029   -0.4808   -2.8365 H   0  0  0  0  0  0  0  0  0  0  0  0
    3.4132    0.5943   -4.0047 H   0  0  0  0  0  0  0  0  0  0  0  0
    5.7141    0.5810   -3.3766 H   0  0  0  0  0  0  0  0  0  0  0  0
    4.8919   -1.1064   -0.9621 H   0  0  0  0  0  0  0  0  0  0  0  0
    6.4977   -0.6992   -1.4963 H   0  0  0  0  0  0  0  0  0  0  0  0
    6.3809    1.5290   -0.5890 H   0  0  0  0  0  0  0  0  0  0  0  0
    5.8421    0.4074    0.6462 H   0  0  0  0  0  0  0  0  0  0  0  0
    4.4714    2.3547    0.7097 H   0  0  0  0  0  0  0  0  0  0  0  0
    4.1487    2.3430   -0.9988 H   0  0  0  0  0  0  0  0  0  0  0  0
  1  2  2  0
  2  3  1  0
  2  4  1  0
  4  5  1  0
  4  6  1  0
  6  7  1  0
  7  8  2  0
  8  9  1  0
  9 10  2  0
 10 11  1  0
 11 12  2  0
 10 13  1  0
 13 14  1  0
 14 15  1  0
 15 16  1  0
 16 17  1  0
 17 18  1  0
 18 19  1  0
 19 20  1  0
 20 21  2  0
 21 22  1  0
 22 23  1  0
 23 24  1  0
 12  7  1  0
 24 17  1  0
  3 25  1  0
  4 26  1  1
  5 27  1  0
  5 28  1  0
  6 29  1  0
  6 30  1  0
  8 31  1  0
  9 32  1  0
 11 33  1  0
 12 34  1  0
 14 35  1  0
 14 36  1  0
 15 37  1  0
 15 38  1  0
 17 39  1  1
 18 40  1  0
 18 41  1  0
 19 42  1  0
 19 43  1  0
 20 44  1  0
 21 45  1  0
 22 46  1  0
 22 47  1  0
 23 48  1  0
 23 49  1  0
 24 50  1  0
 24 51  1  0
M  END
>  <Name>  (38) 
UA18_DS12

>  <canvasUID>  (38) 
38

>  <MW>  (38) 
333.422

>  <AlogP>  (38) 
3.0274

>  <HBA>  (38) 
2

>  <HBD>  (38) 
0

>  <RB>  (38) 
8

>  <PSA>  (38) 
81.78

>  <Estate>  (38) 
56.667

>  <Polar>  (38) 
39.935

>  <Chirality>  (38) 
[(3, 'S'), (16, 'R')]

$$$$

     RDKit          3D

 18 17  0  0  0  0  0  0  0  0999 V2000
   -2.6330   -0.5974    0.8043 O   0  0  0  0  0  0  0  0  0  0  0  0
   -1.5147   -0.8156    0.3638 C   0  0  0  0  0  0  0  0  0  0  0  0
   -0.7351   -1.7623    0.9216 O   0  0  0  0  0  0  0  0  0  0  0  0
   -0.8526   -0.1154   -0.8288 C   0  0  1  0  0  0  0  0  0  0  0  0
   -1.9041    0.4773   -1.6915 N   0  0  0  0  0  0  0  0  0  0  0  0
    0.0957    0.9970   -0.3712 C   0  0  0  0  0  0  0  0  0  0  0  0
    1.3477    0.4644    0.3262 C   0  0  0  0  0  0  0  0  0  0  0  0
    2.2454    1.5955    0.5935 N   0  0  0  0  0  0  0  0  0  0  0  0
    3.3340    1.3014    1.1191 N   0  0  0  0  0  4  0  0  0  0  0  0
    4.3289    1.0265    1.6017 N   0  0  0  0  0  2  0  0  0  0  0  0
   -1.2896   -2.1321    1.6419 H   0  0  0  0  0  0  0  0  0  0  0  0
   -0.3236   -0.8657   -1.4267 H   0  0  0  0  0  0  0  0  0  0  0  0
   -2.4636    1.1149   -1.1182 H   0  0  0  0  0  0  0  0  0  0  0  0
   -2.5592   -0.2594   -1.9596 H   0  0  0  0  0  0  0  0  0  0  0  0
    0.4090    1.5900   -1.2415 H   0  0  0  0  0  0  0  0  0  0  0  0
   -0.4239    1.6894    0.3049 H   0  0  0  0  0  0  0  0  0  0  0  0
    1.8512   -0.2706   -0.3133 H   0  0  0  0  0  0  0  0  0  0  0  0
    1.0873   -0.0190    1.2736 H   0  0  0  0  0  0  0  0  0  0  0  0
  1  2  2  0
  2  3  1  0
  2  4  1  0
  4  5  1  0
  4  6  1  0
  6  7  1  0
  7  8  1  0
  8  9  2  0
  9 10  2  0
  3 11  1  0
  4 12  1  6
  5 13  1  0
  5 14  1  0
  6 15  1  0
  6 16  1  0
  7 17  1  0
  7 18  1  0
M  CHG  2   9   1  10  -1
M  END
>  <Name>  (39) 
UA19_AHA

>  <canvasUID>  (39) 
39

>  <MW>  (39) 
144.1319

>  <AlogP>  (39) 
-2.5167

>  <HBA>  (39) 
0

>  <HBD>  (39) 
0

>  <RB>  (39) 
4

>  <PSA>  (39) 
75.68

>  <Estate>  (39) 
27

>  <Polar>  (39) 
12.759

>  <Chirality>  (39) 
[(3, 'S')]

$$$$

     RDKit          3D

 18 17  0  0  0  0  0  0  0  0999 V2000
    2.2177    2.5371   -0.2303 C   0  0  0  0  0  0  0  0  0  0  0  0
    1.2120    2.1482    0.2984 C   0  0  0  0  0  0  0  0  0  0  0  0
   -0.0202    1.6789    0.9510 C   0  0  0  0  0  0  0  0  0  0  0  0
   -0.6986    0.5435    0.1806 C   0  0  0  0  0  0  0  0  0  0  0  0
   -0.2043   -0.8634    0.5546 C   0  0  2  0  0  0  0  0  0  0  0  0
    1.2432   -1.0300    0.3086 N   0  0  0  0  0  0  0  0  0  0  0  0
   -0.9849   -1.9230   -0.2370 C   0  0  0  0  0  0  0  0  0  0  0  0
   -0.5116   -2.7583   -0.9934 O   0  0  0  0  0  0  0  0  0  0  0  0
   -2.3111   -1.8986    0.0013 O   0  0  0  0  0  0  0  0  0  0  0  0
    3.1147    2.8770   -0.6941 H   0  0  0  0  0  0  0  0  0  0  0  0
    0.1815    1.3793    1.9856 H   0  0  0  0  0  0  0  0  0  0  0  0
   -0.7158    2.5259    1.0016 H   0  0  0  0  0  0  0  0  0  0  0  0
   -0.6139    0.7021   -0.9031 H   0  0  0  0  0  0  0  0  0  0  0  0
   -1.7724    0.5936    0.4058 H   0  0  0  0  0  0  0  0  0  0  0  0
   -0.3828   -1.0590    1.6183 H   0  0  0  0  0  0  0  0  0  0  0  0
    1.4390   -0.7971   -0.6669 H   0  0  0  0  0  0  0  0  0  0  0  0
    1.4714   -2.0242    0.3837 H   0  0  0  0  0  0  0  0  0  0  0  0
   -2.6638   -2.6321   -0.5457 H   0  0  0  0  0  0  0  0  0  0  0  0
  1  2  3  0
  2  3  1  0
  3  4  1  0
  4  5  1  0
  5  6  1  0
  5  7  1  0
  7  8  2  0
  7  9  1  0
  1 10  1  0
  3 11  1  0
  3 12  1  0
  4 13  1  0
  4 14  1  0
  5 15  1  1
  6 16  1  0
  6 17  1  0
  9 18  1  0
M  END
>  <Name>  (40) 
UA20_HPG

>  <canvasUID>  (40) 
40

>  <MW>  (40) 
127.1412

>  <AlogP>  (40) 
0.9135

>  <HBA>  (40) 
0

>  <HBD>  (40) 
1

>  <RB>  (40) 
3

>  <PSA>  (40) 
63.32

>  <Estate>  (40) 
30.5

>  <Polar>  (40) 
12.754

>  <Chirality>  (40) 
[(4, 'S')]

$$$$

     RDKit          3D

 24 23  0  0  0  0  0  0  0  0999 V2000
    1.6263    1.9007   -1.0640 O   0  0  0  0  0  0  0  0  0  0  0  0
    2.2284    1.0585   -0.4159 C   0  0  0  0  0  0  0  0  0  0  0  0
    3.2586    1.4208    0.3835 O   0  0  0  0  0  0  0  0  0  0  0  0
    1.8929   -0.4352   -0.3392 C   0  0  1  0  0  0  0  0  0  0  0  0
    3.1393   -1.2261   -0.2038 N   0  0  0  0  0  0  0  0  0  0  0  0
    0.9535   -0.7230    0.8399 C   0  0  0  0  0  0  0  0  0  0  0  0
   -0.3984    0.0031    0.7918 C   0  0  0  0  0  0  0  0  0  0  0  0
   -1.2413   -0.3506   -0.4377 C   0  0  0  0  0  0  0  0  0  0  0  0
   -2.6120    0.3249   -0.4162 C   0  0  0  0  0  0  0  0  0  0  0  0
   -3.4206   -0.2503    0.6639 N   0  0  0  0  0  0  0  0  0  0  0  0
   -4.5575    0.2370    0.7957 N   0  0  0  0  0  4  0  0  0  0  0  0
   -5.5984    0.6852    0.9146 N   0  0  0  0  0  2  0  0  0  0  0  0
    3.3563    2.3806    0.2131 H   0  0  0  0  0  0  0  0  0  0  0  0
    1.4376   -0.7269   -1.2904 H   0  0  0  0  0  0  0  0  0  0  0  0
    3.6980   -0.8003    0.5406 H   0  0  0  0  0  0  0  0  0  0  0  0
    2.9167   -2.1699    0.1061 H   0  0  0  0  0  0  0  0  0  0  0  0
    1.4487   -0.4446    1.7799 H   0  0  0  0  0  0  0  0  0  0  0  0
    0.7624   -1.8027    0.8980 H   0  0  0  0  0  0  0  0  0  0  0  0
   -0.9506   -0.2633    1.7015 H   0  0  0  0  0  0  0  0  0  0  0  0
   -0.2438    1.0875    0.8349 H   0  0  0  0  0  0  0  0  0  0  0  0
   -0.7214   -0.0286   -1.3465 H   0  0  0  0  0  0  0  0  0  0  0  0
   -1.3648   -1.4385   -0.4999 H   0  0  0  0  0  0  0  0  0  0  0  0
   -3.1102    0.1542   -1.3782 H   0  0  0  0  0  0  0  0  0  0  0  0
   -2.4999    1.4074   -0.2799 H   0  0  0  0  0  0  0  0  0  0  0  0
  1  2  2  0
  2  3  1  0
  2  4  1  0
  4  5  1  0
  4  6  1  0
  6  7  1  0
  7  8  1  0
  8  9  1  0
  9 10  1  0
 10 11  2  0
 11 12  2  0
  3 13  1  0
  4 14  1  6
  5 15  1  0
  5 16  1  0
  6 17  1  0
  6 18  1  0
  7 19  1  0
  7 20  1  0
  8 21  1  0
  8 22  1  0
  9 23  1  0
  9 24  1  0
M  CHG  2  11   1  12  -1
M  END
>  <Name>  (41) 
UA21_ANL

>  <canvasUID>  (41) 
41

>  <MW>  (41) 
172.1851

>  <AlogP>  (41) 
-1.4805

>  <HBA>  (41) 
0

>  <HBD>  (41) 
0

>  <RB>  (41) 
6

>  <PSA>  (41) 
75.68

>  <Estate>  (41) 
30

>  <Polar>  (41) 
16.429

>  <Chirality>  (41) 
[(3, 'S')]

$$$$

     RDKit          3D

 35 34  0  0  0  0  0  0  0  0999 V2000
   -5.1960    1.5929    2.2617 O   0  0  0  0  0  0  0  0  0  0  0  0
   -5.2995    1.2322    1.1004 C   0  0  0  0  0  0  0  0  0  0  0  0
   -6.3028    1.7160    0.3313 O   0  0  0  0  0  0  0  0  0  0  0  0
   -4.4139    0.2082    0.3710 C   0  0  1  0  0  0  0  0  0  0  0  0
   -4.5309    0.3599   -1.0987 N   0  0  0  0  0  0  0  0  0  0  0  0
   -2.9535    0.3548    0.8196 C   0  0  0  0  0  0  0  0  0  0  0  0
   -2.0272   -0.7053    0.2140 C   0  0  0  0  0  0  0  0  0  0  0  0
   -0.6026   -0.5695    0.7537 C   0  0  0  0  0  0  0  0  0  0  0  0
    0.3273   -1.6100    0.1338 C   0  0  0  0  0  0  0  0  0  0  0  0
    1.6641   -1.5154    0.6723 N   0  0  0  0  0  0  0  0  0  0  0  0
    2.5819   -0.6203    0.2182 C   0  0  0  0  0  0  0  0  0  0  0  0
    2.4285    0.1446   -0.7209 O   0  0  0  0  0  0  0  0  0  0  0  0
    3.7009   -0.7122    0.9771 O   0  0  0  0  0  0  0  0  0  0  0  0
    4.7536    0.1988    0.6254 C   0  0  0  0  0  0  0  0  0  0  0  0
    5.5490   -0.3171   -0.5732 C   0  0  0  0  0  0  0  0  0  0  0  0
    6.6823    0.5746   -0.8523 N   0  0  0  0  0  0  0  0  0  0  0  0
    6.4760    1.4612   -1.7016 N   0  0  0  0  0  4  0  0  0  0  0  0
    6.2918    2.2765   -2.4757 N   0  0  0  0  0  2  0  0  0  0  0  0
   -6.7816    2.3259    0.9318 H   0  0  0  0  0  0  0  0  0  0  0  0
   -4.7935   -0.7839    0.6407 H   0  0  0  0  0  0  0  0  0  0  0  0
   -5.5300    0.4375   -1.3127 H   0  0  0  0  0  0  0  0  0  0  0  0
   -4.1482    1.2685   -1.3637 H   0  0  0  0  0  0  0  0  0  0  0  0
   -2.5828    1.3569    0.5655 H   0  0  0  0  0  0  0  0  0  0  0  0
   -2.9056    0.2824    1.9140 H   0  0  0  0  0  0  0  0  0  0  0  0
   -2.0085   -0.6097   -0.8778 H   0  0  0  0  0  0  0  0  0  0  0  0
   -2.4130   -1.7053    0.4466 H   0  0  0  0  0  0  0  0  0  0  0  0
   -0.6065   -0.6846    1.8449 H   0  0  0  0  0  0  0  0  0  0  0  0
   -0.2227    0.4386    0.5462 H   0  0  0  0  0  0  0  0  0  0  0  0
   -0.0326   -2.6226    0.3434 H   0  0  0  0  0  0  0  0  0  0  0  0
    0.3736   -1.4796   -0.9532 H   0  0  0  0  0  0  0  0  0  0  0  0
    1.9134   -2.0194    1.5117 H   0  0  0  0  0  0  0  0  0  0  0  0
    5.4104    0.2789    1.4990 H   0  0  0  0  0  0  0  0  0  0  0  0
    4.3537    1.2048    0.4462 H   0  0  0  0  0  0  0  0  0  0  0  0
    5.9367   -1.3169   -0.3451 H   0  0  0  0  0  0  0  0  0  0  0  0
    4.9081   -0.4413   -1.4547 H   0  0  0  0  0  0  0  0  0  0  0  0
  1  2  2  0
  2  3  1  0
  2  4  1  0
  4  5  1  0
  4  6  1  0
  6  7  1  0
  7  8  1  0
  8  9  1  0
  9 10  1  0
 10 11  1  0
 11 12  2  0
 11 13  1  0
 13 14  1  0
 14 15  1  0
 15 16  1  0
 16 17  2  0
 17 18  2  0
  3 19  1  0
  4 20  1  6
  5 21  1  0
  5 22  1  0
  6 23  1  0
  6 24  1  0
  7 25  1  0
  7 26  1  0
  8 27  1  0
  8 28  1  0
  9 29  1  0
  9 30  1  0
 10 31  1  0
 14 32  1  0
 14 33  1  0
 15 34  1  0
 15 35  1  0
M  CHG  2  17   1  18  -1
M  END
>  <Name>  (42) 
UA22_NAEK

>  <canvasUID>  (42) 
42

>  <MW>  (42) 
259.2624

>  <AlogP>  (42) 
-1.4504

>  <HBA>  (42) 
2

>  <HBD>  (42) 
1

>  <RB>  (42) 
10

>  <PSA>  (42) 
114.01

>  <Estate>  (42) 
47.667

>  <Polar>  (42) 
24.008

>  <Chirality>  (42) 
[(3, 'S')]

$$$$

     RDKit          3D

 28 28  0  0  0  0  0  0  0  0999 V2000
   -4.3337    1.2903    0.4813 C   0  0  0  0  0  0  0  0  0  0  0  0
   -3.6068   -0.0176    0.6555 C   0  0  0  0  0  0  0  0  0  0  0  0
   -4.1558   -0.9813    1.1863 O   0  0  0  0  0  0  0  0  0  0  0  0
   -2.2003   -0.1328    0.1669 C   0  0  0  0  0  0  0  0  0  0  0  0
   -1.5611    0.9041   -0.5210 C   0  0  0  0  0  0  0  0  0  0  0  0
   -0.2420    0.7481   -0.9609 C   0  0  0  0  0  0  0  0  0  0  0  0
    0.4585   -0.4419   -0.7204 C   0  0  0  0  0  0  0  0  0  0  0  0
   -0.1878   -1.4762   -0.0337 C   0  0  0  0  0  0  0  0  0  0  0  0
   -1.5053   -1.3239    0.4064 C   0  0  0  0  0  0  0  0  0  0  0  0
    1.8846   -0.6040   -1.2034 C   0  0  0  0  0  0  0  0  0  0  0  0
    2.9808   -0.5003   -0.1267 C   0  0  2  0  0  0  0  0  0  0  0  0
    2.9607   -1.6566    0.8008 N   0  0  0  0  0  0  0  0  0  0  0  0
    2.9304    0.8163    0.6583 C   0  0  0  0  0  0  0  0  0  0  0  0
    3.1050    0.9521    1.8609 O   0  0  0  0  0  0  0  0  0  0  0  0
    2.7898    1.9081   -0.1221 O   0  0  0  0  0  0  0  0  0  0  0  0
   -3.7832    2.0998    0.9677 H   0  0  0  0  0  0  0  0  0  0  0  0
   -4.4822    1.5011   -0.5808 H   0  0  0  0  0  0  0  0  0  0  0  0
   -5.3171    1.2207    0.9569 H   0  0  0  0  0  0  0  0  0  0  0  0
   -2.0643    1.8426   -0.7325 H   0  0  0  0  0  0  0  0  0  0  0  0
    0.2370    1.5668   -1.4949 H   0  0  0  0  0  0  0  0  0  0  0  0
    0.3327   -2.4098    0.1717 H   0  0  0  0  0  0  0  0  0  0  0  0
   -1.9840   -2.1419    0.9418 H   0  0  0  0  0  0  0  0  0  0  0  0
    2.0800    0.1454   -1.9824 H   0  0  0  0  0  0  0  0  0  0  0  0
    1.9655   -1.5708   -1.7191 H   0  0  0  0  0  0  0  0  0  0  0  0
    3.9601   -0.5105   -0.6220 H   0  0  0  0  0  0  0  0  0  0  0  0
    3.5149   -1.4184    1.6273 H   0  0  0  0  0  0  0  0  0  0  0  0
    3.4133   -2.4552    0.3613 H   0  0  0  0  0  0  0  0  0  0  0  0
    2.8101    2.6460    0.5240 H   0  0  0  0  0  0  0  0  0  0  0  0
  1  2  1  0
  2  3  2  0
  2  4  1  0
  4  5  2  0
  5  6  1  0
  6  7  2  0
  7  8  1  0
  8  9  2  0
  7 10  1  0
 10 11  1  0
 11 12  1  0
 11 13  1  0
 13 14  2  0
 13 15  1  0
  9  4  1  0
  1 16  1  0
  1 17  1  0
  1 18  1  0
  5 19  1  0
  6 20  1  0
  8 21  1  0
  9 22  1  0
 10 23  1  0
 10 24  1  0
 11 25  1  6
 12 26  1  0
 12 27  1  0
 15 28  1  0
M  END
>  <Name>  (43) 
UA23_pAcF

>  <canvasUID>  (43) 
43

>  <MW>  (43) 
207.2258

>  <AlogP>  (43) 
0.5885

>  <HBA>  (43) 
1

>  <HBD>  (43) 
0

>  <RB>  (43) 
4

>  <PSA>  (43) 
80.39

>  <Estate>  (43) 
44.501

>  <Polar>  (43) 
25.033

>  <Chirality>  (43) 
[(10, 'S')]

$$$$

     RDKit          3D

 39 38  0  0  0  0  0  0  0  0999 V2000
   -3.9229    0.7393   -1.3898 O   0  0  0  0  0  0  0  0  0  0  0  0
   -4.6281    0.6617   -0.3982 C   0  0  0  0  0  0  0  0  0  0  0  0
   -5.8886    1.1615   -0.4261 O   0  0  0  0  0  0  0  0  0  0  0  0
   -4.2703    0.0783    0.9798 C   0  0  1  0  0  0  0  0  0  0  0  0
   -5.3644   -0.8311    1.3973 N   0  0  0  0  0  0  0  0  0  0  0  0
   -2.9479   -0.7068    0.9809 C   0  0  0  0  0  0  0  0  0  0  0  0
   -1.7156    0.1413    1.3334 C   0  0  0  0  0  0  0  0  0  0  0  0
   -1.2656    1.1660    0.2886 C   0  0  0  0  0  0  0  0  0  0  0  0
   -0.7419    0.5574   -1.0145 C   0  0  0  0  0  0  0  0  0  0  0  0
    0.4380   -0.2524   -0.8147 N   0  0  0  0  0  0  0  0  0  0  0  0
    1.6851    0.2699   -0.6616 C   0  0  0  0  0  0  0  0  0  0  0  0
    1.9606    1.4575   -0.7077 O   0  0  0  0  0  0  0  0  0  0  0  0
    2.5519   -0.7448   -0.4422 O   0  0  0  0  0  0  0  0  0  0  0  0
    3.9634   -0.4805   -0.2372 C   0  0  0  0  0  0  0  0  0  0  0  0
    4.1959    0.3568    1.0254 C   0  0  0  0  0  0  0  0  0  0  0  0
    4.5968    0.1622   -1.4762 C   0  0  0  0  0  0  0  0  0  0  0  0
    4.5928   -1.8666   -0.0285 C   0  0  0  0  0  0  0  0  0  0  0  0
   -5.9912    1.4712   -1.3504 H   0  0  0  0  0  0  0  0  0  0  0  0
   -4.2225    0.9145    1.6869 H   0  0  0  0  0  0  0  0  0  0  0  0
   -5.2660   -1.0390    2.3896 H   0  0  0  0  0  0  0  0  0  0  0  0
   -6.2453   -0.3195    1.2973 H   0  0  0  0  0  0  0  0  0  0  0  0
   -2.7970   -1.2315    0.0306 H   0  0  0  0  0  0  0  0  0  0  0  0
   -2.9976   -1.4899    1.7505 H   0  0  0  0  0  0  0  0  0  0  0  0
   -1.9137    0.6715    2.2737 H   0  0  0  0  0  0  0  0  0  0  0  0
   -0.8814   -0.5384    1.5478 H   0  0  0  0  0  0  0  0  0  0  0  0
   -0.4710    1.7752    0.7383 H   0  0  0  0  0  0  0  0  0  0  0  0
   -2.0839    1.8587    0.0679 H   0  0  0  0  0  0  0  0  0  0  0  0
   -1.4890   -0.0783   -1.4957 H   0  0  0  0  0  0  0  0  0  0  0  0
   -0.4900    1.3645   -1.7117 H   0  0  0  0  0  0  0  0  0  0  0  0
    0.3585   -1.2533   -0.7076 H   0  0  0  0  0  0  0  0  0  0  0  0
    3.6627   -0.0733    1.8807 H   0  0  0  0  0  0  0  0  0  0  0  0
    3.8294    1.3813    0.9104 H   0  0  0  0  0  0  0  0  0  0  0  0
    5.2613    0.4166    1.2732 H   0  0  0  0  0  0  0  0  0  0  0  0
    4.3456   -0.4049   -2.3796 H   0  0  0  0  0  0  0  0  0  0  0  0
    5.6874    0.2099   -1.3867 H   0  0  0  0  0  0  0  0  0  0  0  0
    4.2373    1.1831   -1.6367 H   0  0  0  0  0  0  0  0  0  0  0  0
    4.1387   -2.3755    0.8298 H   0  0  0  0  0  0  0  0  0  0  0  0
    4.4154   -2.5100   -0.8982 H   0  0  0  0  0  0  0  0  0  0  0  0
    5.6730   -1.8022    0.1395 H   0  0  0  0  0  0  0  0  0  0  0  0
  1  2  2  0
  2  3  1  0
  2  4  1  0
  4  5  1  0
  4  6  1  0
  6  7  1  0
  7  8  1  0
  8  9  1  0
  9 10  1  0
 10 11  1  0
 11 12  2  0
 11 13  1  0
 13 14  1  0
 14 15  1  0
 14 16  1  0
 14 17  1  0
  3 18  1  0
  4 19  1  1
  5 20  1  0
  5 21  1  0
  6 22  1  0
  6 23  1  0
  7 24  1  0
  7 25  1  0
  8 26  1  0
  8 27  1  0
  9 28  1  0
  9 29  1  0
 10 30  1  0
 15 31  1  0
 15 32  1  0
 15 33  1  0
 16 34  1  0
 16 35  1  0
 16 36  1  0
 17 37  1  0
 17 38  1  0
 17 39  1  0
M  END
>  <Name>  (44) 
UA24_eBK

>  <canvasUID>  (44) 
44

>  <MW>  (44) 
246.3034

>  <AlogP>  (44) 
1.0039

>  <HBA>  (44) 
2

>  <HBD>  (44) 
1

>  <RB>  (44) 
8

>  <PSA>  (44) 
101.65

>  <Estate>  (44) 
48.917

>  <Polar>  (44) 
25.107

>  <Chirality>  (44) 
[(3, 'S')]

$$$$

     RDKit          3D

 29 28  0  0  0  0  0  0  0  0999 V2000
    5.0661    1.4636   -0.0599 O   0  0  0  0  0  0  0  0  0  0  0  0
    4.1084    0.8266    0.3569 C   0  0  0  0  0  0  0  0  0  0  0  0
    4.2850   -0.0687    1.3485 O   0  0  0  0  0  0  0  0  0  0  0  0
    2.6414    1.0136   -0.0680 C   0  0  1  0  0  0  0  0  0  0  0  0
    2.5978    1.6730   -1.3900 N   0  0  0  0  0  0  0  0  0  0  0  0
    1.8751   -0.3173   -0.1136 C   0  0  0  0  0  0  0  0  0  0  0  0
    0.3829   -0.1511   -0.4264 C   0  0  0  0  0  0  0  0  0  0  0  0
   -0.3432   -1.5002   -0.3935 C   0  0  0  0  0  0  0  0  0  0  0  0
   -1.8277   -1.3661   -0.7229 C   0  0  0  0  0  0  0  0  0  0  0  0
   -2.5539   -0.6645    0.3174 N   0  0  0  0  0  0  0  0  0  0  0  0
   -3.7781   -0.0896    0.0536 C   0  0  0  0  0  0  0  0  0  0  0  0
   -4.2828   -0.0329   -1.0623 O   0  0  0  0  0  0  0  0  0  0  0  0
   -4.4683    0.4641    1.2714 C   0  0  0  0  0  0  0  0  0  0  0  0
    5.2524   -0.0461    1.5065 H   0  0  0  0  0  0  0  0  0  0  0  0
    2.1910    1.6845    0.6733 H   0  0  0  0  0  0  0  0  0  0  0  0
    3.3049    2.4128   -1.4061 H   0  0  0  0  0  0  0  0  0  0  0  0
    1.6975    2.1320   -1.5146 H   0  0  0  0  0  0  0  0  0  0  0  0
    1.9676   -0.8250    0.8548 H   0  0  0  0  0  0  0  0  0  0  0  0
    2.3358   -0.9864   -0.8525 H   0  0  0  0  0  0  0  0  0  0  0  0
   -0.0650    0.5325    0.3045 H   0  0  0  0  0  0  0  0  0  0  0  0
    0.2511    0.2990   -1.4169 H   0  0  0  0  0  0  0  0  0  0  0  0
   -0.2212   -1.9625    0.5938 H   0  0  0  0  0  0  0  0  0  0  0  0
    0.1185   -2.1739   -1.1254 H   0  0  0  0  0  0  0  0  0  0  0  0
   -2.2796   -2.3606   -0.8091 H   0  0  0  0  0  0  0  0  0  0  0  0
   -1.9690   -0.8544   -1.6814 H   0  0  0  0  0  0  0  0  0  0  0  0
   -2.3568   -0.9173    1.2769 H   0  0  0  0  0  0  0  0  0  0  0  0
   -3.7726    0.5876    2.1062 H   0  0  0  0  0  0  0  0  0  0  0  0
   -4.8882    1.4446    1.0300 H   0  0  0  0  0  0  0  0  0  0  0  0
   -5.2691   -0.2172    1.5701 H   0  0  0  0  0  0  0  0  0  0  0  0
  1  2  2  0
  2  3  1  0
  2  4  1  0
  4  5  1  0
  4  6  1  0
  6  7  1  0
  7  8  1  0
  8  9  1  0
  9 10  1  0
 10 11  1  0
 11 12  2  0
 11 13  1  0
  3 14  1  0
  4 15  1  1
  5 16  1  0
  5 17  1  0
  6 18  1  0
  6 19  1  0
  7 20  1  0
  7 21  1  0
  8 22  1  0
  8 23  1  0
  9 24  1  0
  9 25  1  0
 10 26  1  0
 13 27  1  0
 13 28  1  0
 13 29  1  0
M  END
>  <Name>  (45) 
UA25_AcK

>  <canvasUID>  (45) 
45

>  <MW>  (45) 
188.2242

>  <AlogP>  (45) 
-0.7651

>  <HBA>  (45) 
1

>  <HBD>  (45) 
1

>  <RB>  (45) 
6

>  <PSA>  (45) 
92.42

>  <Estate>  (45) 
40.167

>  <Polar>  (45) 
18.965

>  <Chirality>  (45) 
[(3, 'S')]

$$$$

     RDKit          3D

 29 28  0  0  0  0  0  0  0  0999 V2000
   -2.3287    1.9074    0.6366 O   0  0  0  0  0  0  0  0  0  0  0  0
   -3.1295    0.9884    0.6030 C   0  0  0  0  0  0  0  0  0  0  0  0
   -4.3938    1.1810    1.0502 O   0  0  0  0  0  0  0  0  0  0  0  0
   -2.8839   -0.4549    0.1244 C   0  0  1  0  0  0  0  0  0  0  0  0
   -4.1211   -0.9930   -0.4951 N   0  0  0  0  0  0  0  0  0  0  0  0
   -1.7462   -0.5359   -0.9024 C   0  0  0  0  0  0  0  0  0  0  0  0
   -0.3594   -0.4472   -0.2513 C   0  0  0  0  0  0  0  0  0  0  0  0
    0.7505   -0.4958   -1.3064 C   0  0  0  0  0  0  0  0  0  0  0  0
    2.1459   -0.4840   -0.6876 C   0  0  0  0  0  0  0  0  0  0  0  0
    2.4420    0.7651   -0.0090 N   0  0  0  0  0  0  0  0  0  0  0  0
    3.5187    1.0120    0.7930 C   0  0  0  0  0  0  0  0  0  0  0  0
    3.7646    2.5579    1.3750 S   0  0  0  0  0  0  0  0  0  0  0  0
    4.4396   -0.1265    1.1472 C   0  0  0  0  0  0  0  0  0  0  0  0
   -4.3961    2.1176    1.3416 H   0  0  0  0  0  0  0  0  0  0  0  0
   -2.6521   -1.0622    1.0062 H   0  0  0  0  0  0  0  0  0  0  0  0
   -4.3444   -0.4369   -1.3211 H   0  0  0  0  0  0  0  0  0  0  0  0
   -4.8874   -0.8022    0.1583 H   0  0  0  0  0  0  0  0  0  0  0  0
   -1.8030   -1.4904   -1.4427 H   0  0  0  0  0  0  0  0  0  0  0  0
   -1.8540    0.2606   -1.6501 H   0  0  0  0  0  0  0  0  0  0  0  0
   -0.2345   -1.2817    0.4496 H   0  0  0  0  0  0  0  0  0  0  0  0
   -0.2707    0.4753    0.3307 H   0  0  0  0  0  0  0  0  0  0  0  0
    0.6421    0.3537   -1.9920 H   0  0  0  0  0  0  0  0  0  0  0  0
    0.6420   -1.4090   -1.9039 H   0  0  0  0  0  0  0  0  0  0  0  0
    2.2621   -1.3113    0.0205 H   0  0  0  0  0  0  0  0  0  0  0  0
    2.8997   -0.6097   -1.4727 H   0  0  0  0  0  0  0  0  0  0  0  0
    1.8963    1.5871   -0.2522 H   0  0  0  0  0  0  0  0  0  0  0  0
    4.7670   -0.6409    0.2386 H   0  0  0  0  0  0  0  0  0  0  0  0
    5.3293    0.2162    1.6841 H   0  0  0  0  0  0  0  0  0  0  0  0
    3.9050   -0.8406    1.7816 H   0  0  0  0  0  0  0  0  0  0  0  0
  1  2  2  0
  2  3  1  0
  2  4  1  0
  4  5  1  0
  4  6  1  0
  6  7  1  0
  7  8  1  0
  8  9  1  0
  9 10  1  0
 10 11  1  0
 11 12  2  0
 11 13  1  0
  3 14  1  0
  4 15  1  1
  5 16  1  0
  5 17  1  0
  6 18  1  0
  6 19  1  0
  7 20  1  0
  7 21  1  0
  8 22  1  0
  8 23  1  0
  9 24  1  0
  9 25  1  0
 10 26  1  0
 13 27  1  0
 13 28  1  0
 13 29  1  0
M  END
>  <Name>  (46) 
UA26_TAcK

>  <canvasUID>  (46) 
46

>  <MW>  (46) 
204.2898

>  <AlogP>  (46) 
0.3285

>  <HBA>  (46) 
0

>  <HBD>  (46) 
1

>  <RB>  (46) 
7

>  <PSA>  (46) 
107.44

>  <Estate>  (46) 
36.834

>  <Polar>  (46) 
22.125

>  <Chirality>  (46) 
[(3, 'S')]

$$$$

     RDKit          3D

 32 31  0  0  0  0  0  0  0  0999 V2000
    3.0771    2.1059   -0.4550 C   0  0  0  0  0  0  0  0  0  0  0  0
    2.8368    0.8035   -1.1972 C   0  0  0  0  0  0  0  0  0  0  0  0
    1.9180   -0.1334   -0.4370 C   0  0  0  0  0  0  0  0  0  0  0  0
    1.4391    0.1303    0.6611 O   0  0  0  0  0  0  0  0  0  0  0  0
    1.6806   -1.3102   -1.1188 N   0  0  0  0  0  0  0  0  0  0  0  0
    0.7803   -2.3336   -0.6256 C   0  0  0  0  0  0  0  0  0  0  0  0
   -0.6023   -2.2698   -1.2832 C   0  0  0  0  0  0  0  0  0  0  0  0
   -1.3621   -0.9557   -1.0699 C   0  0  0  0  0  0  0  0  0  0  0  0
   -1.7611   -0.7193    0.3911 C   0  0  0  0  0  0  0  0  0  0  0  0
   -2.2587    0.7075    0.6633 C   0  0  2  0  0  0  0  0  0  0  0  0
   -1.2062    1.7020    0.3391 N   0  0  0  0  0  0  0  0  0  0  0  0
   -2.6921    0.8325    2.1336 C   0  0  0  0  0  0  0  0  0  0  0  0
   -3.2892   -0.0032    2.7939 O   0  0  0  0  0  0  0  0  0  0  0  0
   -2.3912    2.0339    2.6815 O   0  0  0  0  0  0  0  0  0  0  0  0
    3.7413    2.7566   -1.0319 H   0  0  0  0  0  0  0  0  0  0  0  0
    2.1367    2.6407   -0.2851 H   0  0  0  0  0  0  0  0  0  0  0  0
    3.5395    1.9232    0.5206 H   0  0  0  0  0  0  0  0  0  0  0  0
    3.7927    0.2942   -1.3625 H   0  0  0  0  0  0  0  0  0  0  0  0
    2.3856    1.0175   -2.1725 H   0  0  0  0  0  0  0  0  0  0  0  0
    2.0567   -1.4167   -2.0520 H   0  0  0  0  0  0  0  0  0  0  0  0
    0.7077   -2.2733    0.4641 H   0  0  0  0  0  0  0  0  0  0  0  0
    1.2450   -3.2960   -0.8665 H   0  0  0  0  0  0  0  0  0  0  0  0
   -0.4835   -2.4207   -2.3637 H   0  0  0  0  0  0  0  0  0  0  0  0
   -1.2101   -3.1048   -0.9143 H   0  0  0  0  0  0  0  0  0  0  0  0
   -0.7614   -0.1277   -1.4595 H   0  0  0  0  0  0  0  0  0  0  0  0
   -2.2751   -0.9775   -1.6782 H   0  0  0  0  0  0  0  0  0  0  0  0
   -0.9278   -0.9367    1.0676 H   0  0  0  0  0  0  0  0  0  0  0  0
   -2.5473   -1.4385    0.6560 H   0  0  0  0  0  0  0  0  0  0  0  0
   -3.1395    0.9314    0.0515 H   0  0  0  0  0  0  0  0  0  0  0  0
   -0.3092    1.3464    0.6971 H   0  0  0  0  0  0  0  0  0  0  0  0
   -1.3942    2.5341    0.9067 H   0  0  0  0  0  0  0  0  0  0  0  0
   -2.7264    1.9577    3.5992 H   0  0  0  0  0  0  0  0  0  0  0  0
  1  2  1  0
  2  3  1  0
  3  4  2  0
  3  5  1  0
  5  6  1  0
  6  7  1  0
  7  8  1  0
  8  9  1  0
  9 10  1  0
 10 11  1  0
 10 12  1  0
 12 13  2  0
 12 14  1  0
  1 15  1  0
  1 16  1  0
  1 17  1  0
  2 18  1  0
  2 19  1  0
  5 20  1  0
  6 21  1  0
  6 22  1  0
  7 23  1  0
  7 24  1  0
  8 25  1  0
  8 26  1  0
  9 27  1  0
  9 28  1  0
 10 29  1  6
 11 30  1  0
 11 31  1  0
 14 32  1  0
M  END
>  <Name>  (47) 
UA27_ProK

>  <canvasUID>  (47) 
47

>  <MW>  (47) 
202.2508

>  <AlogP>  (47) 
-0.0982

>  <HBA>  (47) 
1

>  <HBD>  (47) 
1

>  <RB>  (47) 
7

>  <PSA>  (47) 
92.42

>  <Estate>  (47) 
41.667

>  <Polar>  (47) 
20.8

>  <Chirality>  (47) 
[(9, 'S')]

$$$$

     RDKit          3D

 35 36  0  0  0  0  0  0  0  0999 V2000
    3.5240    1.9691   -1.2960 O   0  0  0  0  0  0  0  0  0  0  0  0
    3.7637    1.1757   -0.3991 C   0  0  0  0  0  0  0  0  0  0  0  0
    4.4453    1.5788    0.6979 O   0  0  0  0  0  0  0  0  0  0  0  0
    3.2751   -0.2706   -0.3231 C   0  0  1  0  0  0  0  0  0  0  0  0
    4.2236   -1.1030    0.4591 N   0  0  0  0  0  0  0  0  0  0  0  0
    1.8543   -0.2431    0.2659 C   0  0  0  0  0  0  0  0  0  0  0  0
    1.1601   -1.9328    0.4372 S   0  0  0  0  0  0  0  0  0  0  0  0
   -0.4834   -1.5863    1.1936 C   0  0  1  0  0  0  0  0  0  0  0  0
   -0.3064   -1.1187    2.6434 C   0  0  0  0  0  0  0  0  0  0  0  0
   -1.3436   -0.7009    0.2998 C   0  0  0  0  0  0  0  0  0  0  0  0
   -1.5460    0.6604    0.6114 C   0  0  0  0  0  0  0  0  0  0  0  0
   -1.9400   -1.1853   -0.9034 C   0  0  0  0  0  0  0  0  0  0  0  0
   -1.8118   -2.5807   -1.3003 N   0  0  0  0  0  4  0  0  0  0  0  0
   -2.3112   -3.4275   -0.5483 O   0  0  0  0  0  1  0  0  0  0  0  0
   -1.2557   -2.8083   -2.3820 O   0  0  0  0  0  0  0  0  0  0  0  0
   -2.6900   -0.3694   -1.7671 C   0  0  0  0  0  0  0  0  0  0  0  0
   -2.8440    0.9462   -1.4040 C   0  0  0  0  0  0  0  0  0  0  0  0
   -2.2911    1.4450   -0.2501 C   0  0  0  0  0  0  0  0  0  0  0  0
   -3.5306    1.8888   -2.1009 O   0  0  0  0  0  0  0  0  0  0  0  0
   -3.3402    3.0459   -1.2594 C   0  0  0  0  0  0  0  0  0  0  0  0
   -2.5579    2.7675   -0.0782 O   0  0  0  0  0  0  0  0  0  0  0  0
    4.7162    2.4956    0.4818 H   0  0  0  0  0  0  0  0  0  0  0  0
    3.2620   -0.6636   -1.3464 H   0  0  0  0  0  0  0  0  0  0  0  0
    3.7518   -1.9797    0.6914 H   0  0  0  0  0  0  0  0  0  0  0  0
    4.4057   -0.6298    1.3463 H   0  0  0  0  0  0  0  0  0  0  0  0
    1.8697    0.2398    1.2481 H   0  0  0  0  0  0  0  0  0  0  0  0
    1.2070    0.3452   -0.3922 H   0  0  0  0  0  0  0  0  0  0  0  0
   -0.9793   -2.5576    1.2837 H   0  0  0  0  0  0  0  0  0  0  0  0
    0.2326   -1.8692    3.2333 H   0  0  0  0  0  0  0  0  0  0  0  0
    0.2395   -0.1746    2.7302 H   0  0  0  0  0  0  0  0  0  0  0  0
   -1.2833   -0.9755    3.1201 H   0  0  0  0  0  0  0  0  0  0  0  0
   -1.1278    1.1242    1.4989 H   0  0  0  0  0  0  0  0  0  0  0  0
   -3.1329   -0.7497   -2.6821 H   0  0  0  0  0  0  0  0  0  0  0  0
   -4.3226    3.4201   -0.9494 H   0  0  0  0  0  0  0  0  0  0  0  0
   -2.8329    3.8241   -1.8412 H   0  0  0  0  0  0  0  0  0  0  0  0
  1  2  2  0
  2  3  1  0
  2  4  1  0
  4  5  1  0
  4  6  1  0
  6  7  1  0
  7  8  1  0
  8  9  1  0
  8 10  1  0
 10 11  2  0
 10 12  1  0
 12 13  1  0
 13 14  1  0
 13 15  2  0
 12 16  2  0
 16 17  1  0
 17 18  2  0
 17 19  1  0
 19 20  1  0
 20 21  1  0
 18 11  1  0
 21 18  1  0
  3 22  1  0
  4 23  1  6
  5 24  1  0
  5 25  1  0
  6 26  1  0
  6 27  1  0
  8 28  1  1
  9 29  1  0
  9 30  1  0
  9 31  1  0
 11 32  1  0
 16 33  1  0
 20 34  1  0
 20 35  1  0
M  CHG  2  13   1  14  -1
M  END
>  <Name>  (48) 
UA28_PCC

>  <canvasUID>  (48) 
48

>  <MW>  (48) 
314.3144

>  <AlogP>  (48) 
1.1812

>  <HBA>  (48) 
3

>  <HBD>  (48) 
0

>  <RB>  (48) 
6

>  <PSA>  (48) 
150.22

>  <Estate>  (48) 
62.834

>  <Polar>  (48) 
31.828

>  <Chirality>  (48) 
[(3, 'R'), (7, 'S')]

$$$$

     RDKit          3D

 25 25  0  0  0  0  0  0  0  0999 V2000
    4.3137   -1.0019    0.7269 O   0  0  0  0  0  0  0  0  0  0  0  0
    3.4523   -0.2885    0.2340 C   0  0  0  0  0  0  0  0  0  0  0  0
    3.7522    0.9634   -0.1650 O   0  0  0  0  0  0  0  0  0  0  0  0
    1.9908   -0.6711   -0.0184 C   0  0  1  0  0  0  0  0  0  0  0  0
    1.8294   -2.1403    0.1553 N   0  0  0  0  0  0  0  0  0  0  0  0
    1.0843    0.1146    0.9444 C   0  0  0  0  0  0  0  0  0  0  0  0
   -0.3280    0.2772    0.4320 C   0  0  0  0  0  0  0  0  0  0  0  0
   -1.2525   -0.7672    0.5367 C   0  0  0  0  0  0  0  0  0  0  0  0
   -2.5542   -0.6148    0.0493 C   0  0  0  0  0  0  0  0  0  0  0  0
   -2.9700    0.5934   -0.5126 C   0  0  0  0  0  0  0  0  0  0  0  0
   -4.2359    0.7006   -1.1016 N   0  0  0  0  0  0  0  0  0  0  0  0
   -2.0289    1.6115   -0.6759 C   0  0  0  0  0  0  0  0  0  0  0  0
   -0.7246    1.4655   -0.1926 C   0  0  0  0  0  0  0  0  0  0  0  0
    4.7076    1.0573    0.0356 H   0  0  0  0  0  0  0  0  0  0  0  0
    1.7664   -0.4336   -1.0652 H   0  0  0  0  0  0  0  0  0  0  0  0
    2.2125   -2.3937    1.0694 H   0  0  0  0  0  0  0  0  0  0  0  0
    2.4458   -2.6074   -0.5122 H   0  0  0  0  0  0  0  0  0  0  0  0
    1.4994    1.1127    1.1383 H   0  0  0  0  0  0  0  0  0  0  0  0
    1.0561   -0.3665    1.9320 H   0  0  0  0  0  0  0  0  0  0  0  0
   -0.9584   -1.7172    0.9782 H   0  0  0  0  0  0  0  0  0  0  0  0
   -3.2402   -1.4549    0.1122 H   0  0  0  0  0  0  0  0  0  0  0  0
   -4.9301    0.0886   -0.6847 H   0  0  0  0  0  0  0  0  0  0  0  0
   -4.5652    1.6566   -1.1874 H   0  0  0  0  0  0  0  0  0  0  0  0
   -2.3028    2.5321   -1.1838 H   0  0  0  0  0  0  0  0  0  0  0  0
   -0.0199    2.2837   -0.3213 H   0  0  0  0  0  0  0  0  0  0  0  0
  1  2  2  0
  2  3  1  0
  2  4  1  0
  4  5  1  0
  4  6  1  0
  6  7  1  0
  7  8  2  0
  8  9  1  0
  9 10  2  0
 10 11  1  0
 10 12  1  0
 12 13  2  0
 13  7  1  0
  3 14  1  0
  4 15  1  6
  5 16  1  0
  5 17  1  0
  6 18  1  0
  6 19  1  0
  8 20  1  0
  9 21  1  0
 11 22  1  0
 11 23  1  0
 12 24  1  0
 13 25  1  0
M  END
>  <Name>  (49) 
UA29_pAMF

>  <canvasUID>  (49) 
49

>  <MW>  (49) 
180.2038

>  <AlogP>  (49) 
0.102

>  <HBA>  (49) 
0

>  <HBD>  (49) 
1

>  <RB>  (49) 
3

>  <PSA>  (49) 
89.34

>  <Estate>  (49) 
37.834

>  <Polar>  (49) 
22.628

>  <Chirality>  (49) 
[(3, 'S')]

$$$$

     RDKit          3D

 24 24  0  0  0  0  0  0  0  0999 V2000
    5.4962   -1.3413    1.5672 N   0  0  0  0  0  0  0  0  0  0  0  0
    4.4310   -0.9560    1.3135 C   0  0  0  0  0  0  0  0  0  0  0  0
    3.1155   -0.4789    1.0029 C   0  0  0  0  0  0  0  0  0  0  0  0
    2.7464   -0.2523   -0.3259 C   0  0  0  0  0  0  0  0  0  0  0  0
    1.4638    0.2124   -0.6274 C   0  0  0  0  0  0  0  0  0  0  0  0
    0.5368    0.4572    0.3941 C   0  0  0  0  0  0  0  0  0  0  0  0
    0.9119    0.2228    1.7244 C   0  0  0  0  0  0  0  0  0  0  0  0
    2.1949   -0.2406    2.0276 C   0  0  0  0  0  0  0  0  0  0  0  0
   -0.8569    0.9495    0.0696 C   0  0  0  0  0  0  0  0  0  0  0  0
   -1.8260   -0.1792   -0.3257 C   0  0  2  0  0  0  0  0  0  0  0  0
   -1.5905   -0.6368   -1.7231 N   0  0  0  0  0  0  0  0  0  0  0  0
   -3.2764    0.2973   -0.1507 C   0  0  0  0  0  0  0  0  0  0  0  0
   -3.7155    0.9829    0.7585 O   0  0  0  0  0  0  0  0  0  0  0  0
   -4.1120   -0.1546   -1.1146 O   0  0  0  0  0  0  0  0  0  0  0  0
    3.4492   -0.4393   -1.1354 H   0  0  0  0  0  0  0  0  0  0  0  0
    1.1866    0.3719   -1.6679 H   0  0  0  0  0  0  0  0  0  0  0  0
    0.2078    0.4011    2.5351 H   0  0  0  0  0  0  0  0  0  0  0  0
    2.4680   -0.4146    3.0667 H   0  0  0  0  0  0  0  0  0  0  0  0
   -0.7996    1.7066   -0.7247 H   0  0  0  0  0  0  0  0  0  0  0  0
   -1.2383    1.4943    0.9434 H   0  0  0  0  0  0  0  0  0  0  0  0
   -1.7034   -1.0451    0.3359 H   0  0  0  0  0  0  0  0  0  0  0  0
   -1.7668    0.1468   -2.3529 H   0  0  0  0  0  0  0  0  0  0  0  0
   -2.3348   -1.3041   -1.9466 H   0  0  0  0  0  0  0  0  0  0  0  0
   -4.9880    0.2001   -0.8521 H   0  0  0  0  0  0  0  0  0  0  0  0
  1  2  3  0
  2  3  1  0
  3  4  2  0
  4  5  1  0
  5  6  2  0
  6  7  1  0
  7  8  2  0
  6  9  1  0
  9 10  1  0
 10 11  1  0
 10 12  1  0
 12 13  2  0
 12 14  1  0
  8  3  1  0
  4 15  1  0
  5 16  1  0
  7 17  1  0
  8 18  1  0
  9 19  1  0
  9 20  1  0
 10 21  1  1
 11 22  1  0
 11 23  1  0
 14 24  1  0
M  END
>  <Name>  (50) 
UA30_pCNF

>  <canvasUID>  (50) 
50

>  <MW>  (50) 
190.1986

>  <AlogP>  (50) 
0.7275

>  <HBA>  (50) 
1

>  <HBD>  (50) 
0

>  <RB>  (50) 
3

>  <PSA>  (50) 
87.11

>  <Estate>  (50) 
42.334

>  <Polar>  (50) 
23.129

>  <Chirality>  (50) 
[(9, 'S')]

$$$$

     RDKit          3D

 25 25  0  0  0  0  0  0  0  0999 V2000
   -3.8304   -0.6017   -1.2533 O   0  0  0  0  0  0  0  0  0  0  0  0
   -3.4763   -0.2922   -0.1272 C   0  0  0  0  0  0  0  0  0  0  0  0
   -4.3964   -0.1751    0.8582 O   0  0  0  0  0  0  0  0  0  0  0  0
   -2.0473    0.0415    0.3281 C   0  0  1  0  0  0  0  0  0  0  0  0
   -1.9376   -0.0398    1.8107 N   0  0  0  0  0  0  0  0  0  0  0  0
   -1.0479   -0.9022   -0.3645 C   0  0  0  0  0  0  0  0  0  0  0  0
    0.3764   -0.3896   -0.3413 C   0  0  0  0  0  0  0  0  0  0  0  0
    0.8804    0.3433   -1.4266 C   0  0  0  0  0  0  0  0  0  0  0  0
    2.1901    0.8290   -1.4083 C   0  0  0  0  0  0  0  0  0  0  0  0
    3.0015    0.5832   -0.2938 C   0  0  0  0  0  0  0  0  0  0  0  0
    4.3777    1.0927   -0.2694 N   0  0  0  0  0  4  0  0  0  0  0  0
    5.0736    0.8314    0.7226 O   0  0  0  0  0  1  0  0  0  0  0  0
    4.7657    1.7541   -1.2435 O   0  0  0  0  0  0  0  0  0  0  0  0
    2.5106   -0.1422    0.7980 C   0  0  0  0  0  0  0  0  0  0  0  0
    1.2000   -0.6242    0.7695 C   0  0  0  0  0  0  0  0  0  0  0  0
   -5.2457   -0.3846    0.4143 H   0  0  0  0  0  0  0  0  0  0  0  0
   -1.8640    1.0821    0.0349 H   0  0  0  0  0  0  0  0  0  0  0  0
   -2.1710   -0.9904    2.1002 H   0  0  0  0  0  0  0  0  0  0  0  0
   -2.6976    0.5282    2.1967 H   0  0  0  0  0  0  0  0  0  0  0  0
   -1.3350   -1.0624   -1.4123 H   0  0  0  0  0  0  0  0  0  0  0  0
   -1.0833   -1.9026    0.0885 H   0  0  0  0  0  0  0  0  0  0  0  0
    0.2548    0.5399   -2.2958 H   0  0  0  0  0  0  0  0  0  0  0  0
    2.5581    1.3928   -2.2629 H   0  0  0  0  0  0  0  0  0  0  0  0
    3.1262   -0.3353    1.6739 H   0  0  0  0  0  0  0  0  0  0  0  0
    0.8177   -1.1759    1.6268 H   0  0  0  0  0  0  0  0  0  0  0  0
  1  2  2  0
  2  3  1  0
  2  4  1  0
  4  5  1  0
  4  6  1  0
  6  7  1  0
  7  8  2  0
  8  9  1  0
  9 10  2  0
 10 11  1  0
 11 12  1  0
 11 13  2  0
 10 14  1  0
 14 15  2  0
 15  7  1  0
  3 16  1  0
  4 17  1  6
  5 18  1  0
  5 19  1  0
  6 20  1  0
  6 21  1  0
  8 22  1  0
  9 23  1  0
 14 24  1  0
 15 25  1  0
M  CHG  2  11   1  12  -1
M  END
>  <Name>  (51) 
UA31_pNTF

>  <canvasUID>  (51) 
51

>  <MW>  (51) 
210.1867

>  <AlogP>  (51) 
0.743

>  <HBA>  (51) 
0

>  <HBD>  (51) 
0

>  <RB>  (51) 
4

>  <PSA>  (51) 
106.46

>  <Estate>  (51) 
49.834

>  <Polar>  (51) 
22.823

>  <Chirality>  (51) 
[(3, 'S')]

$$$$

     RDKit          3D

 26 26  0  0  0  0  0  0  0  0999 V2000
   -1.1170   -1.9096    1.4682 O   0  0  0  0  0  0  0  0  0  0  0  0
   -1.9558   -1.2294    0.8998 C   0  0  0  0  0  0  0  0  0  0  0  0
   -2.9136   -0.5946    1.6173 O   0  0  0  0  0  0  0  0  0  0  0  0
   -2.0383   -0.9413   -0.6028 C   0  0  1  0  0  0  0  0  0  0  0  0
   -3.4588   -0.9708   -1.0351 N   0  0  0  0  0  0  0  0  0  0  0  0
   -1.3924    0.4196   -0.9119 C   0  0  0  0  0  0  0  0  0  0  0  0
    0.1081    0.4245   -0.7257 C   0  0  0  0  0  0  0  0  0  0  0  0
    0.6801    0.9628    0.4394 C   0  0  0  0  0  0  0  0  0  0  0  0
    2.0676    0.9407    0.6338 C   0  0  0  0  0  0  0  0  0  0  0  0
    2.6785    1.4723    1.7861 N   0  0  0  0  0  0  0  0  0  0  0  0
    2.2940    0.9174    2.8356 N   0  0  0  0  0  4  0  0  0  0  0  0
    1.9489    0.4285    3.8063 N   0  0  0  0  0  2  0  0  0  0  0  0
    2.8752    0.4086   -0.3786 C   0  0  0  0  0  0  0  0  0  0  0  0
    4.2383    0.4099   -0.2489 O   0  0  0  0  0  0  0  0  0  0  0  0
    2.3292   -0.1298   -1.5368 C   0  0  0  0  0  0  0  0  0  0  0  0
    0.9450   -0.1269   -1.7075 C   0  0  0  0  0  0  0  0  0  0  0  0
   -2.7527   -0.9067    2.5330 H   0  0  0  0  0  0  0  0  0  0  0  0
   -1.5229   -1.7539   -1.1268 H   0  0  0  0  0  0  0  0  0  0  0  0
   -3.5487   -0.5616   -1.9629 H   0  0  0  0  0  0  0  0  0  0  0  0
   -3.9939   -0.3758   -0.3974 H   0  0  0  0  0  0  0  0  0  0  0  0
   -1.8401    1.2083   -0.2924 H   0  0  0  0  0  0  0  0  0  0  0  0
   -1.6002    0.7071   -1.9516 H   0  0  0  0  0  0  0  0  0  0  0  0
    0.0404    1.4003    1.2028 H   0  0  0  0  0  0  0  0  0  0  0  0
    4.4252    0.8996    0.5749 H   0  0  0  0  0  0  0  0  0  0  0  0
    2.9785   -0.5459   -2.3017 H   0  0  0  0  0  0  0  0  0  0  0  0
    0.5254   -0.5532   -2.6168 H   0  0  0  0  0  0  0  0  0  0  0  0
  1  2  2  0
  2  3  1  0
  2  4  1  0
  4  5  1  0
  4  6  1  0
  6  7  1  0
  7  8  2  0
  8  9  1  0
  9 10  1  0
 10 11  2  0
 11 12  2  0
  9 13  2  0
 13 14  1  0
 13 15  1  0
 15 16  2  0
 16  7  1  0
  3 17  1  0
  4 18  1  6
  5 19  1  0
  5 20  1  0
  6 21  1  0
  6 22  1  0
  8 23  1  0
 14 24  1  0
 15 25  1  0
 16 26  1  0
M  CHG  2  11   1  12  -1
M  END
>  <Name>  (52) 
UA32_N3Y

>  <canvasUID>  (52) 
53

>  <MW>  (52) 
222.2007

>  <AlogP>  (52) 
-0.593

>  <HBA>  (52) 
1

>  <HBD>  (52) 
1

>  <RB>  (52) 
4

>  <PSA>  (52) 
95.91

>  <Estate>  (52) 
42.501

>  <Polar>  (52) 
24.485

>  <Chirality>  (52) 
[(3, 'S')]

$$$$

     RDKit          3D

 27 28  0  0  0  0  0  0  0  0999 V2000
    3.4585    1.2951   -0.8072 O   0  0  0  0  0  0  0  0  0  0  0  0
    3.0948    0.2923   -0.2125 C   0  0  0  0  0  0  0  0  0  0  0  0
    3.4913    0.0894    1.0662 O   0  0  0  0  0  0  0  0  0  0  0  0
    2.2512   -0.8564   -0.7813 C   0  0  1  0  0  0  0  0  0  0  0  0
    1.8130   -1.7969    0.2861 N   0  0  0  0  0  0  0  0  0  0  0  0
    1.0800   -0.3193   -1.6204 C   0  0  0  0  0  0  0  0  0  0  0  0
    0.0642    0.4816   -0.8539 C   0  0  0  0  0  0  0  0  0  0  0  0
    0.0922    1.8471   -0.6448 C   0  0  0  0  0  0  0  0  0  0  0  0
   -1.0108    2.1977    0.0843 N   0  0  0  0  0  0  0  0  0  0  0  0
   -1.7709    1.0855    0.3607 C   0  0  0  0  0  0  0  0  0  0  0  0
   -1.1243   -0.0078   -0.2203 C   0  0  0  0  0  0  0  0  0  0  0  0
   -2.9734    0.9705    1.0712 C   0  0  0  0  0  0  0  0  0  0  0  0
   -3.5313   -0.3047    1.1908 C   0  0  0  0  0  0  0  0  0  0  0  0
   -2.9046   -1.4050    0.6208 C   0  0  0  0  0  0  0  0  0  0  0  0
   -3.4638   -2.6158    0.7539 F   0  0  0  0  0  0  0  0  0  0  0  0
   -1.7082   -1.2833   -0.0850 C   0  0  0  0  0  0  0  0  0  0  0  0
    4.0202    0.8881    1.2739 H   0  0  0  0  0  0  0  0  0  0  0  0
    2.9229   -1.4225   -1.4378 H   0  0  0  0  0  0  0  0  0  0  0  0
    2.6158   -1.9377    0.9063 H   0  0  0  0  0  0  0  0  0  0  0  0
    1.1367   -1.3052    0.8755 H   0  0  0  0  0  0  0  0  0  0  0  0
    0.5740   -1.1601   -2.1125 H   0  0  0  0  0  0  0  0  0  0  0  0
    1.4740    0.3067   -2.4324 H   0  0  0  0  0  0  0  0  0  0  0  0
    0.8055    2.5989   -0.9596 H   0  0  0  0  0  0  0  0  0  0  0  0
   -1.2424    3.1379    0.3742 H   0  0  0  0  0  0  0  0  0  0  0  0
   -3.4592    1.8347    1.5123 H   0  0  0  0  0  0  0  0  0  0  0  0
   -4.4626   -0.4461    1.7312 H   0  0  0  0  0  0  0  0  0  0  0  0
   -1.2428   -2.1649   -0.5135 H   0  0  0  0  0  0  0  0  0  0  0  0
  1  2  2  0
  2  3  1  0
  2  4  1  0
  4  5  1  0
  4  6  1  0
  6  7  1  0
  7  8  2  0
  8  9  1  0
  9 10  1  0
 10 11  2  0
 10 12  1  0
 12 13  2  0
 13 14  1  0
 14 15  1  0
 14 16  2  0
 11  7  1  0
 16 11  1  0
  3 17  1  0
  4 18  1  6
  5 19  1  0
  5 20  1  0
  6 21  1  0
  6 22  1  0
  8 23  1  0
  9 24  1  0
 12 25  1  0
 13 26  1  0
 16 27  1  0
M  END
>  <Name>  (53) 
UA33_FluoW

>  <canvasUID>  (53) 
54

>  <MW>  (53) 
222.2156

>  <AlogP>  (53) 
0.8318

>  <HBA>  (53) 
0

>  <HBD>  (53) 
1

>  <RB>  (53) 
3

>  <PSA>  (53) 
79.11

>  <Estate>  (53) 
47.668

>  <Polar>  (53) 
26.395

>  <Chirality>  (53) 
[(3, 'S')]

$$$$

     RDKit          3D

 31 32  0  0  0  0  0  0  0  0999 V2000
   -5.8181    0.3608   -0.2601 O   0  0  0  0  0  0  0  0  0  0  0  0
   -4.8806    1.0931    0.0189 C   0  0  0  0  0  0  0  0  0  0  0  0
   -5.0096    2.4326   -0.0741 O   0  0  0  0  0  0  0  0  0  0  0  0
   -3.4729    0.6602    0.4308 C   0  0  1  0  0  0  0  0  0  0  0  0
   -3.5514   -0.5920    1.2161 N   0  0  0  0  0  0  0  0  0  0  0  0
   -2.6323    0.5171   -0.8500 C   0  0  0  0  0  0  0  0  0  0  0  0
   -1.1780    0.2209   -0.5952 C   0  0  0  0  0  0  0  0  0  0  0  0
   -0.6225   -1.0188   -0.9055 C   0  0  0  0  0  0  0  0  0  0  0  0
    0.7272   -1.2553   -0.6464 C   0  0  0  0  0  0  0  0  0  0  0  0
    1.5110   -0.2488   -0.0799 C   0  0  0  0  0  0  0  0  0  0  0  0
    0.9779    0.9674    0.2243 N   0  0  0  0  0  0  0  0  0  0  0  0
   -0.3330    1.1723   -0.0376 C   0  0  0  0  0  0  0  0  0  0  0  0
    2.9512   -0.4438    0.2196 C   0  0  0  0  0  0  0  0  0  0  0  0
    3.7358    0.5643    0.7852 C   0  0  0  0  0  0  0  0  0  0  0  0
    5.0839    0.3252    1.0460 C   0  0  0  0  0  0  0  0  0  0  0  0
    5.6254   -0.9144    0.7382 C   0  0  0  0  0  0  0  0  0  0  0  0
    4.7923   -1.8668    0.1802 C   0  0  0  0  0  0  0  0  0  0  0  0
    3.4821   -1.6628   -0.0835 N   0  0  0  0  0  0  0  0  0  0  0  0
   -5.9502    2.5599   -0.3212 H   0  0  0  0  0  0  0  0  0  0  0  0
   -3.0593    1.4304    1.0918 H   0  0  0  0  0  0  0  0  0  0  0  0
   -4.0908   -1.2805    0.6874 H   0  0  0  0  0  0  0  0  0  0  0  0
   -2.6167   -0.9818    1.3354 H   0  0  0  0  0  0  0  0  0  0  0  0
   -3.0636   -0.2627   -1.4930 H   0  0  0  0  0  0  0  0  0  0  0  0
   -2.6927    1.4401   -1.4427 H   0  0  0  0  0  0  0  0  0  0  0  0
   -1.2247   -1.8083   -1.3481 H   0  0  0  0  0  0  0  0  0  0  0  0
    1.1629   -2.2211   -0.8871 H   0  0  0  0  0  0  0  0  0  0  0  0
   -0.6932    2.1640    0.2252 H   0  0  0  0  0  0  0  0  0  0  0  0
    3.3021    1.5315    1.0229 H   0  0  0  0  0  0  0  0  0  0  0  0
    5.7008    1.1034    1.4858 H   0  0  0  0  0  0  0  0  0  0  0  0
    6.6699   -1.1333    0.9283 H   0  0  0  0  0  0  0  0  0  0  0  0
    5.1671   -2.8529   -0.0789 H   0  0  0  0  0  0  0  0  0  0  0  0
  1  2  2  0
  2  3  1  0
  2  4  1  0
  4  5  1  0
  4  6  1  0
  6  7  1  0
  7  8  2  0
  8  9  1  0
  9 10  2  0
 10 11  1  0
 11 12  2  0
 10 13  1  0
 13 14  2  0
 14 15  1  0
 15 16  2  0
 16 17  1  0
 17 18  2  0
 12  7  1  0
 18 13  1  0
  3 19  1  0
  4 20  1  1
  5 21  1  0
  5 22  1  0
  6 23  1  0
  6 24  1  0
  8 25  1  0
  9 26  1  0
 12 27  1  0
 14 28  1  0
 15 29  1  0
 16 30  1  0
 17 31  1  0
M  END
>  <Name>  (54) 
UA34_BPA

>  <canvasUID>  (54) 
55

>  <MW>  (54) 
243.2612

>  <AlogP>  (54) 
0.9228

>  <HBA>  (54) 
2

>  <HBD>  (54) 
0

>  <RB>  (54) 
4

>  <PSA>  (54) 
89.1

>  <Estate>  (54) 
47.501

>  <Polar>  (54) 
31.695

>  <Chirality>  (54) 
[(3, 'S')]

$$$$

     RDKit          3D

 29 30  0  0  0  0  0  0  0  0999 V2000
   -3.9318    0.0640   -1.4704 O   0  0  0  0  0  0  0  0  0  0  0  0
   -3.1014    0.5777   -0.7356 C   0  0  0  0  0  0  0  0  0  0  0  0
   -2.3128    1.5753   -1.1762 O   0  0  0  0  0  0  0  0  0  0  0  0
   -2.8333    0.1953    0.7218 C   0  0  1  0  0  0  0  0  0  0  0  0
   -4.1252   -0.0885    1.3975 N   0  0  0  0  0  0  0  0  0  0  0  0
   -1.9342   -1.0496    0.7829 C   0  0  0  0  0  0  0  0  0  0  0  0
   -0.5312   -0.8046    0.2908 C   0  0  0  0  0  0  0  0  0  0  0  0
   -0.1072   -1.2775   -0.9450 C   0  0  0  0  0  0  0  0  0  0  0  0
    1.1288   -1.0765   -1.4552 N   0  0  0  0  0  0  0  0  0  0  0  0
    0.3904   -0.0803    1.0505 C   0  0  0  0  0  0  0  0  0  0  0  0
    1.6832    0.1492    0.5598 C   0  0  0  0  0  0  0  0  0  0  0  0
    2.0056   -0.3728   -0.7075 C   0  0  0  0  0  0  0  0  0  0  0  0
    2.6448    0.8749    1.2893 C   0  0  0  0  0  0  0  0  0  0  0  0
    3.9224    1.0842    0.7664 C   0  0  0  0  0  0  0  0  0  0  0  0
    4.2484    0.5720   -0.4848 C   0  0  0  0  0  0  0  0  0  0  0  0
    3.2895   -0.1436   -1.1953 C   0  0  0  0  0  0  0  0  0  0  0  0
    3.6361   -0.6408   -2.4294 O   0  0  0  0  0  0  0  0  0  0  0  0
   -2.5668    1.7045   -2.1141 H   0  0  0  0  0  0  0  0  0  0  0  0
   -2.3727    1.0463    1.2361 H   0  0  0  0  0  0  0  0  0  0  0  0
   -4.6317   -0.7793    0.8355 H   0  0  0  0  0  0  0  0  0  0  0  0
   -4.7055    0.7510    1.3545 H   0  0  0  0  0  0  0  0  0  0  0  0
   -1.8679   -1.4127    1.8176 H   0  0  0  0  0  0  0  0  0  0  0  0
   -2.3836   -1.8708    0.2078 H   0  0  0  0  0  0  0  0  0  0  0  0
   -0.7715   -1.8500   -1.5886 H   0  0  0  0  0  0  0  0  0  0  0  0
    0.1031    0.3062    2.0262 H   0  0  0  0  0  0  0  0  0  0  0  0
    2.4021    1.2805    2.2691 H   0  0  0  0  0  0  0  0  0  0  0  0
    4.6606    1.6449    1.3341 H   0  0  0  0  0  0  0  0  0  0  0  0
    5.2370    0.7243   -0.9073 H   0  0  0  0  0  0  0  0  0  0  0  0
    2.8249   -1.1032   -2.7306 H   0  0  0  0  0  0  0  0  0  0  0  0
  1  2  2  0
  2  3  1  0
  2  4  1  0
  4  5  1  0
  4  6  1  0
  6  7  1  0
  7  8  2  0
  8  9  1  0
  7 10  1  0
 10 11  2  0
 11 12  1  0
 11 13  1  0
 13 14  2  0
 14 15  1  0
 15 16  2  0
 16 17  1  0
 12  9  2  0
 16 12  1  0
  3 18  1  0
  4 19  1  1
  5 20  1  0
  5 21  1  0
  6 22  1  0
  6 23  1  0
  8 24  1  0
 10 25  1  0
 13 26  1  0
 14 27  1  0
 15 28  1  0
 17 29  1  0
M  END
>  <Name>  (55) 
UA35_HQA

>  <canvasUID>  (55) 
56

>  <MW>  (55) 
232.2353

>  <AlogP>  (55) 
0.7675

>  <HBA>  (55) 
2

>  <HBD>  (55) 
1

>  <RB>  (55) 
3

>  <PSA>  (55) 
96.44

>  <Estate>  (55) 
48.168

>  <Polar>  (55) 
29.019

>  <Chirality>  (55) 
[(3, 'S')]

$$$$

     RDKit          3D

 24 24  0  0  0  0  0  0  0  0999 V2000
    4.2325   -0.5615   -0.1784 O   0  0  0  0  0  0  0  0  0  0  0  0
    3.2689    0.1901   -0.1915 C   0  0  0  0  0  0  0  0  0  0  0  0
    3.4324    1.5127    0.0068 O   0  0  0  0  0  0  0  0  0  0  0  0
    1.8109   -0.2084   -0.4384 C   0  0  1  0  0  0  0  0  0  0  0  0
    1.7597   -1.6068   -0.9445 N   0  0  0  0  0  0  0  0  0  0  0  0
    1.0112   -0.0512    0.8660 C   0  0  0  0  0  0  0  0  0  0  0  0
   -0.4789    0.0712    0.6392 C   0  0  0  0  0  0  0  0  0  0  0  0
   -1.0877    1.3343    0.5959 C   0  0  0  0  0  0  0  0  0  0  0  0
   -2.4633    1.4488    0.3757 C   0  0  0  0  0  0  0  0  0  0  0  0
   -3.2296    3.1832    0.3310 Br  0  0  0  0  0  0  0  0  0  0  0  0
   -3.2390    0.3026    0.1925 C   0  0  0  0  0  0  0  0  0  0  0  0
   -4.5846    0.4111   -0.0249 O   0  0  0  0  0  0  0  0  0  0  0  0
   -2.6436   -0.9573    0.2276 C   0  0  0  0  0  0  0  0  0  0  0  0
   -1.2687   -1.0704    0.4491 C   0  0  0  0  0  0  0  0  0  0  0  0
    4.3996    1.6224    0.1279 H   0  0  0  0  0  0  0  0  0  0  0  0
    1.4203    0.4449   -1.2277 H   0  0  0  0  0  0  0  0  0  0  0  0
    2.2940   -2.1945   -0.2991 H   0  0  0  0  0  0  0  0  0  0  0  0
    2.2944   -1.6472   -1.8146 H   0  0  0  0  0  0  0  0  0  0  0  0
    1.3503    0.8334    1.4215 H   0  0  0  0  0  0  0  0  0  0  0  0
    1.2069   -0.8930    1.5447 H   0  0  0  0  0  0  0  0  0  0  0  0
   -0.4875    2.2309    0.7341 H   0  0  0  0  0  0  0  0  0  0  0  0
   -4.9596   -0.4763   -0.1434 H   0  0  0  0  0  0  0  0  0  0  0  0
   -3.2274   -1.8609    0.0810 H   0  0  0  0  0  0  0  0  0  0  0  0
   -0.8110   -2.0583    0.4615 H   0  0  0  0  0  0  0  0  0  0  0  0
  1  2  2  0
  2  3  1  0
  2  4  1  0
  4  5  1  0
  4  6  1  0
  6  7  1  0
  7  8  2  0
  8  9  1  0
  9 10  1  0
  9 11  2  0
 11 12  1  0
 11 13  1  0
 13 14  2  0
 14  7  1  0
  3 15  1  0
  4 16  1  6
  5 17  1  0
  5 18  1  0
  6 19  1  0
  6 20  1  0
  8 21  1  0
 12 22  1  0
 13 23  1  0
 14 24  1  0
M  END
>  <Name>  (56) 
UA36_3BrY

>  <canvasUID>  (56) 
57

>  <MW>  (56) 
260.0846

>  <AlogP>  (56) 
1.3296

>  <HBA>  (56) 
1

>  <HBD>  (56) 
1

>  <RB>  (56) 
3

>  <PSA>  (56) 
83.55

>  <Estate>  (56) 
42.251

>  <Polar>  (56) 
24.54

>  <Chirality>  (56) 
[(3, 'S')]

$$$$

     RDKit          3D

 24 24  0  0  0  0  0  0  0  0999 V2000
    4.2231   -0.5826   -0.2197 O   0  0  0  0  0  0  0  0  0  0  0  0
    3.2690    0.1807   -0.1985 C   0  0  0  0  0  0  0  0  0  0  0  0
    3.4495    1.4923    0.0517 O   0  0  0  0  0  0  0  0  0  0  0  0
    1.8051   -0.1897   -0.4545 C   0  0  1  0  0  0  0  0  0  0  0  0
    1.7342   -1.5664   -1.0147 N   0  0  0  0  0  0  0  0  0  0  0  0
    1.0124   -0.0739    0.8583 C   0  0  0  0  0  0  0  0  0  0  0  0
   -0.4783    0.0640    0.6437 C   0  0  0  0  0  0  0  0  0  0  0  0
   -1.0799    1.3313    0.6428 C   0  0  0  0  0  0  0  0  0  0  0  0
   -2.4556    1.4614    0.4339 C   0  0  0  0  0  0  0  0  0  0  0  0
   -3.1457    3.0436    0.4458 Cl  0  0  0  0  0  0  0  0  0  0  0  0
   -3.2395    0.3251    0.2194 C   0  0  0  0  0  0  0  0  0  0  0  0
   -4.5861    0.4495    0.0130 O   0  0  0  0  0  0  0  0  0  0  0  0
   -2.6519   -0.9391    0.2121 C   0  0  0  0  0  0  0  0  0  0  0  0
   -1.2763   -1.0666    0.4225 C   0  0  0  0  0  0  0  0  0  0  0  0
    4.4184    1.5857    0.1726 H   0  0  0  0  0  0  0  0  0  0  0  0
    1.4195    0.4988   -1.2158 H   0  0  0  0  0  0  0  0  0  0  0  0
    2.2656   -2.1851   -0.3964 H   0  0  0  0  0  0  0  0  0  0  0  0
    2.2635   -1.5788   -1.8891 H   0  0  0  0  0  0  0  0  0  0  0  0
    1.3588    0.7891    1.4424 H   0  0  0  0  0  0  0  0  0  0  0  0
    1.2070   -0.9398    1.5063 H   0  0  0  0  0  0  0  0  0  0  0  0
   -0.4771    2.2220    0.8052 H   0  0  0  0  0  0  0  0  0  0  0  0
   -4.9692   -0.4304   -0.1319 H   0  0  0  0  0  0  0  0  0  0  0  0
   -3.2421   -1.8342    0.0407 H   0  0  0  0  0  0  0  0  0  0  0  0
   -0.8243   -2.0571    0.4018 H   0  0  0  0  0  0  0  0  0  0  0  0
  1  2  2  0
  2  3  1  0
  2  4  1  0
  4  5  1  0
  4  6  1  0
  6  7  1  0
  7  8  2  0
  8  9  1  0
  9 10  1  0
  9 11  2  0
 11 12  1  0
 11 13  1  0
 13 14  2  0
 14  7  1  0
  3 15  1  0
  4 16  1  6
  5 17  1  0
  5 18  1  0
  6 19  1  0
  6 20  1  0
  8 21  1  0
 12 22  1  0
 13 23  1  0
 14 24  1  0
M  END
>  <Name>  (57) 
UA37_3ClY

>  <canvasUID>  (57) 
58

>  <MW>  (57) 
215.6336

>  <AlogP>  (57) 
1.2456

>  <HBA>  (57) 
1

>  <HBD>  (57) 
1

>  <RB>  (57) 
3

>  <PSA>  (57) 
83.55

>  <Estate>  (57) 
43.612

>  <Polar>  (57) 
23.884

>  <Chirality>  (57) 
[(3, 'S')]

$$$$

     RDKit          3D

 40 40  0  0  0  0  0  0  0  0999 V2000
   -5.4913    2.0107   -1.6873 O   0  0  0  0  0  0  0  0  0  0  0  0
   -5.9594    1.4314   -0.7206 C   0  0  0  0  0  0  0  0  0  0  0  0
   -7.3020    1.3430   -0.5724 O   0  0  0  0  0  0  0  0  0  0  0  0
   -5.1783    0.7893    0.4384 C   0  0  1  0  0  0  0  0  0  0  0  0
   -5.9982   -0.2432    1.1149 N   0  0  0  0  0  0  0  0  0  0  0  0
   -3.8600    0.1901   -0.0741 C   0  0  0  0  0  0  0  0  0  0  0  0
   -2.9602   -0.3333    1.0519 C   0  0  0  0  0  0  0  0  0  0  0  0
   -1.6645   -0.9735    0.5448 C   0  0  0  0  0  0  0  0  0  0  0  0
   -0.7171    0.0182   -0.1280 C   0  0  0  0  0  0  0  0  0  0  0  0
    0.5270   -0.6126   -0.5024 N   0  0  0  0  0  0  0  0  0  0  0  0
    1.5768   -0.7522    0.3533 C   0  0  0  0  0  0  0  0  0  0  0  0
    1.6111   -0.3351    1.5007 O   0  0  0  0  0  0  0  0  0  0  0  0
    2.5627   -1.4337   -0.2738 O   0  0  0  0  0  0  0  0  0  0  0  0
    3.7548   -1.6419    0.4916 C   0  0  0  0  0  0  0  0  0  0  0  0
    4.7918   -0.6231    0.0957 C   0  0  0  0  0  0  0  0  0  0  0  0
    4.9138    0.5771    0.8096 C   0  0  0  0  0  0  0  0  0  0  0  0
    5.8611    1.5307    0.4342 C   0  0  0  0  0  0  0  0  0  0  0  0
    6.6897    1.2974   -0.6619 C   0  0  0  0  0  0  0  0  0  0  0  0
    6.5683    0.1133   -1.3870 C   0  0  0  0  0  0  0  0  0  0  0  0
    5.6208   -0.8414   -1.0134 C   0  0  0  0  0  0  0  0  0  0  0  0
   -7.6541    1.8132   -1.3576 H   0  0  0  0  0  0  0  0  0  0  0  0
   -4.9721    1.5886    1.1593 H   0  0  0  0  0  0  0  0  0  0  0  0
   -6.1884   -0.9960    0.4529 H   0  0  0  0  0  0  0  0  0  0  0  0
   -6.9167    0.1740    1.2934 H   0  0  0  0  0  0  0  0  0  0  0  0
   -4.0689   -0.6184   -0.7872 H   0  0  0  0  0  0  0  0  0  0  0  0
   -3.3207    0.9613   -0.6368 H   0  0  0  0  0  0  0  0  0  0  0  0
   -3.5002   -1.0899    1.6333 H   0  0  0  0  0  0  0  0  0  0  0  0
   -2.7197    0.4842    1.7422 H   0  0  0  0  0  0  0  0  0  0  0  0
   -1.9002   -1.7897   -0.1496 H   0  0  0  0  0  0  0  0  0  0  0  0
   -1.1547   -1.4371    1.3990 H   0  0  0  0  0  0  0  0  0  0  0  0
   -1.1535    0.4180   -1.0479 H   0  0  0  0  0  0  0  0  0  0  0  0
   -0.5019    0.8560    0.5445 H   0  0  0  0  0  0  0  0  0  0  0  0
    0.6313   -1.0480   -1.4079 H   0  0  0  0  0  0  0  0  0  0  0  0
    4.1202   -2.6493    0.2596 H   0  0  0  0  0  0  0  0  0  0  0  0
    3.5771   -1.6323    1.5741 H   0  0  0  0  0  0  0  0  0  0  0  0
    4.2636    0.7766    1.6601 H   0  0  0  0  0  0  0  0  0  0  0  0
    5.9480    2.4575    0.9952 H   0  0  0  0  0  0  0  0  0  0  0  0
    7.4257    2.0415   -0.9544 H   0  0  0  0  0  0  0  0  0  0  0  0
    7.2089   -0.0649   -2.2466 H   0  0  0  0  0  0  0  0  0  0  0  0
    5.5294   -1.7563   -1.5945 H   0  0  0  0  0  0  0  0  0  0  0  0
  1  2  2  0
  2  3  1  0
  2  4  1  0
  4  5  1  0
  4  6  1  0
  6  7  1  0
  7  8  1  0
  8  9  1  0
  9 10  1  0
 10 11  1  0
 11 12  2  0
 11 13  1  0
 13 14  1  0
 14 15  1  0
 15 16  2  0
 16 17  1  0
 17 18  2  0
 18 19  1  0
 19 20  2  0
 20 15  1  0
  3 21  1  0
  4 22  1  1
  5 23  1  0
  5 24  1  0
  6 25  1  0
  6 26  1  0
  7 27  1  0
  7 28  1  0
  8 29  1  0
  8 30  1  0
  9 31  1  0
  9 32  1  0
 10 33  1  0
 14 34  1  0
 14 35  1  0
 16 36  1  0
 17 37  1  0
 18 38  1  0
 19 39  1  0
 20 40  1  0
M  END
>  <Name>  (58) 
UA38_LysZ

>  <canvasUID>  (58) 
59

>  <MW>  (58) 
280.3196

>  <AlogP>  (58) 
1.6561

>  <HBA>  (58) 
2

>  <HBD>  (58) 
1

>  <RB>  (58) 
9

>  <PSA>  (58) 
101.65

>  <Estate>  (58) 
54.834

>  <Polar>  (58) 
32.526

>  <Chirality>  (58) 
[(3, 'S')]

$$$$

     RDKit          3D

 24 24  0  0  0  0  0  0  0  0999 V2000
    2.5193   -1.9596    0.6982 O   0  0  0  0  0  0  0  0  0  0  0  0
    2.3687   -0.9557   -0.0358 C   0  0  0  0  0  0  0  0  0  0  0  0
    2.3186   -1.1041   -1.4087 O   0  0  0  0  0  0  0  0  0  0  0  0
    2.2419    0.3974    0.5331 C   0  0  1  0  0  0  0  0  0  0  0  0
    2.0797    1.3755   -0.5013 N   0  0  0  0  0  0  0  0  0  0  0  0
    1.0695    0.5088    1.4885 C   0  0  0  0  0  0  0  0  0  0  0  0
   -0.2062    0.2007    0.8108 C   0  0  0  0  0  0  0  0  0  0  0  0
   -0.9352    1.2099    0.2014 C   0  0  0  0  0  0  0  0  0  0  0  0
   -2.1370    0.9584   -0.4443 C   0  0  0  0  0  0  0  0  0  0  0  0
   -2.6462   -0.3300   -0.4964 C   0  0  0  0  0  0  0  0  0  0  0  0
   -4.3077   -0.6589   -1.3926 Se  0  0  0  0  0  2  0  0  0  0  0  0
   -1.9285   -1.3401    0.1067 C   0  0  0  0  0  0  0  0  0  0  0  0
   -0.7291   -1.0906    0.7514 C   0  0  0  0  0  0  0  0  0  0  0  0
    2.7707   -1.8810   -1.8741 H   0  0  0  0  0  0  0  0  0  0  0  0
    3.2047    0.6152    1.0501 H   0  0  0  0  0  0  0  0  0  0  0  0
    1.8741    2.3142   -0.0649 H   0  0  0  0  0  0  0  0  0  0  0  0
    1.2861    1.1657   -1.1507 H   0  0  0  0  0  0  0  0  0  0  0  0
    1.2553   -0.1063    2.3847 H   0  0  0  0  0  0  0  0  0  0  0  0
    1.0449    1.5704    1.8243 H   0  0  0  0  0  0  0  0  0  0  0  0
   -0.5325    2.2190    0.2444 H   0  0  0  0  0  0  0  0  0  0  0  0
   -2.6643    1.7815   -0.9026 H   0  0  0  0  0  0  0  0  0  0  0  0
   -5.4165   -0.6507   -0.3010 H   0  0  0  0  0  0  0  0  0  0  0  0
   -2.3432   -2.3446    0.0559 H   0  0  0  0  0  0  0  0  0  0  0  0
   -0.1871   -1.8952    1.2147 H   0  0  0  0  0  0  0  0  0  0  0  0
  1  2  2  0
  2  3  1  0
  2  4  1  0
  4  5  1  0
  4  6  1  0
  6  7  1  0
  7  8  2  0
  8  9  1  0
  9 10  2  0
 10 11  1  0
 10 12  1  0
 12 13  2  0
 13  7  1  0
  3 14  1  0
  4 15  1  1
  5 16  1  0
  5 17  1  0
  6 18  1  0
  6 19  1  0
  8 20  1  0
  9 21  1  0
 11 22  1  0
 12 23  1  0
 13 24  1  0
M  END
>  <Name>  (59) 
UA39_SeF

>  <canvasUID>  (59) 
60

>  <MW>  (59) 
244.1491

>  <AlogP>  (59) 
1.254

>  <HBA>  (59) 
0

>  <HBD>  (59) 
0

>  <RB>  (59) 
3

>  <PSA>  (59) 
63.32

>  <Estate>  (59) 
36.084

>  <Polar>  (59) 
21.277

>  <Chirality>  (59) 
[(3, 'S')]

$$$$

     RDKit          3D

 14 13  0  0  0  0  0  0  0  0999 V2000
   -1.3073   -1.7855   -0.4899 O   0  0  0  0  0  0  0  0  0  0  0  0
   -1.1219   -0.6764    0.0693 C   0  0  0  0  0  0  0  0  0  0  0  0
   -1.7681   -0.4092    1.2432 O   0  0  0  0  0  0  0  0  0  0  0  0
   -0.2108    0.2884   -0.5725 C   0  0  1  0  0  0  0  0  0  0  0  0
   -0.0761    1.5120    0.1491 N   0  0  0  0  0  0  0  0  0  0  0  0
    1.1439   -0.4073   -0.7134 C   0  0  0  0  0  0  0  0  0  0  0  0
    1.7867   -0.9016    1.0331 Se  0  0  0  0  0  2  0  0  0  0  0  0
   -2.7043   -0.7607    1.4356 H   0  0  0  0  0  0  0  0  0  0  0  0
   -0.6024    0.4852   -1.5893 H   0  0  0  0  0  0  0  0  0  0  0  0
   -0.5002    2.2964   -0.3957 H   0  0  0  0  0  0  0  0  0  0  0  0
   -0.5195    1.4940    1.0916 H   0  0  0  0  0  0  0  0  0  0  0  0
    0.9550   -1.2985   -1.3448 H   0  0  0  0  0  0  0  0  0  0  0  0
    1.8179    0.3193   -1.2242 H   0  0  0  0  0  0  0  0  0  0  0  0
    3.1073   -0.1561    1.3079 H   0  0  0  0  0  0  0  0  0  0  0  0
  1  2  2  0
  2  3  1  0
  2  4  1  0
  4  5  1  0
  4  6  1  0
  6  7  1  0
  3  8  1  0
  4  9  1  6
  5 10  1  0
  5 11  1  0
  6 12  1  0
  6 13  1  0
  7 14  1  0
M  END
>  <Name>  (60) 
UA40_SeC

>  <canvasUID>  (60) 
61

>  <MW>  (60) 
168.0532

>  <AlogP>  (60) 
-0.5787

>  <HBA>  (60) 
0

>  <HBD>  (60) 
0

>  <RB>  (60) 
2

>  <PSA>  (60) 
63.32

>  <Estate>  (60) 
24.75

>  <Polar>  (60) 
8.353

>  <Chirality>  (60) 
[(3, 'R')]

$$$$

     RDKit          3D

 29 29  0  0  0  0  0  0  0  0999 V2000
    5.6540   -3.7587   -0.0396 C   0  0  0  0  0  0  0  0  0  0  0  0
    4.8930   -2.8379   -0.1656 C   0  0  0  0  0  0  0  0  0  0  0  0
    3.9612   -1.7108   -0.3198 C   0  0  0  0  0  0  0  0  0  0  0  0
    2.6248   -2.1976   -0.2194 O   0  0  0  0  0  0  0  0  0  0  0  0
    1.6167   -1.2812   -0.3394 C   0  0  0  0  0  0  0  0  0  0  0  0
    0.3307   -1.8133   -0.2284 C   0  0  0  0  0  0  0  0  0  0  0  0
   -0.7942   -0.9916   -0.3322 C   0  0  0  0  0  0  0  0  0  0  0  0
    1.7686    0.0885   -0.5536 C   0  0  0  0  0  0  0  0  0  0  0  0
    0.6427    0.9142   -0.6570 C   0  0  0  0  0  0  0  0  0  0  0  0
   -0.6488    0.3817   -0.5519 C   0  0  0  0  0  0  0  0  0  0  0  0
   -1.8593    1.2816   -0.6591 C   0  0  0  0  0  0  0  0  0  0  0  0
   -2.4409    1.6880    0.7069 C   0  0  2  0  0  0  0  0  0  0  0  0
   -3.2763    0.6023    1.2910 N   0  0  0  0  0  0  0  0  0  0  0  0
   -3.2620    2.9787    0.5579 C   0  0  0  0  0  0  0  0  0  0  0  0
   -2.9764    3.9534   -0.1190 O   0  0  0  0  0  0  0  0  0  0  0  0
   -4.3876    2.9922    1.3098 O   0  0  0  0  0  0  0  0  0  0  0  0
    6.3221   -4.5811    0.0733 H   0  0  0  0  0  0  0  0  0  0  0  0
    4.1545   -0.9765    0.4712 H   0  0  0  0  0  0  0  0  0  0  0  0
    4.1202   -1.2475   -1.3007 H   0  0  0  0  0  0  0  0  0  0  0  0
    0.2016   -2.8789   -0.0548 H   0  0  0  0  0  0  0  0  0  0  0  0
   -1.7838   -1.4314   -0.2302 H   0  0  0  0  0  0  0  0  0  0  0  0
    2.7448    0.5522   -0.6451 H   0  0  0  0  0  0  0  0  0  0  0  0
    0.7846    1.9802   -0.8233 H   0  0  0  0  0  0  0  0  0  0  0  0
   -1.5730    2.1714   -1.2353 H   0  0  0  0  0  0  0  0  0  0  0  0
   -2.6241    0.7889   -1.2752 H   0  0  0  0  0  0  0  0  0  0  0  0
   -1.6391    1.9144    1.4198 H   0  0  0  0  0  0  0  0  0  0  0  0
   -4.0550    0.4177    0.6579 H   0  0  0  0  0  0  0  0  0  0  0  0
   -3.7222    0.9871    2.1285 H   0  0  0  0  0  0  0  0  0  0  0  0
   -4.7768    3.8749    1.1331 H   0  0  0  0  0  0  0  0  0  0  0  0
  1  2  3  0
  2  3  1  0
  3  4  1  0
  4  5  1  0
  5  6  2  0
  6  7  1  0
  5  8  1  0
  8  9  2  0
  9 10  1  0
 10 11  1  0
 11 12  1  0
 12 13  1  0
 12 14  1  0
 14 15  2  0
 14 16  1  0
 10  7  2  0
  1 17  1  0
  3 18  1  0
  3 19  1  0
  6 20  1  0
  7 21  1  0
  8 22  1  0
  9 23  1  0
 11 24  1  0
 11 25  1  0
 12 26  1  1
 13 27  1  0
 13 28  1  0
 16 29  1  0
M  END
>  <Name>  (61) 
UA41_pPaF

>  <canvasUID>  (61) 
62

>  <MW>  (61) 
219.2365

>  <AlogP>  (61) 
2.0244

>  <HBA>  (61) 
1

>  <HBD>  (61) 
1

>  <RB>  (61) 
5

>  <PSA>  (61) 
72.55

>  <Estate>  (61) 
45.334

>  <Polar>  (61) 
26.315

>  <Chirality>  (61) 
[(11, 'S')]

$$$$

     RDKit          3D

 35 36  0  0  0  0  0  0  0  0999 V2000
    3.6317   -0.5020    0.4482 C   0  0  0  0  0  0  0  0  0  0  0  0
    4.8520   -0.1834    1.0479 C   0  0  0  0  0  0  0  0  0  0  0  0
    5.8468    0.4599    0.3112 C   0  0  0  0  0  0  0  0  0  0  0  0
    5.6296    0.7790   -1.0291 C   0  0  0  0  0  0  0  0  0  0  0  0
    4.4118    0.4625   -1.6327 C   0  0  0  0  0  0  0  0  0  0  0  0
    3.4029   -0.1635   -0.8912 C   0  0  0  0  0  0  0  0  0  0  0  0
    2.1257   -0.4939   -1.5731 C   0  0  0  0  0  0  0  0  0  0  0  0
    2.1408   -0.8021   -2.7623 O   0  0  0  0  0  0  0  0  0  0  0  0
    0.8283   -0.4600   -0.8524 C   0  0  0  0  0  0  0  0  0  0  0  0
   -0.1551   -1.3896   -1.2066 C   0  0  0  0  0  0  0  0  0  0  0  0
   -1.3934   -1.3809   -0.5615 C   0  0  0  0  0  0  0  0  0  0  0  0
   -1.6654   -0.4353    0.4365 C   0  0  0  0  0  0  0  0  0  0  0  0
   -0.6836    0.5079    0.7707 C   0  0  0  0  0  0  0  0  0  0  0  0
    0.5560    0.5014    0.1264 C   0  0  0  0  0  0  0  0  0  0  0  0
   -3.0159   -0.4120    1.1211 C   0  0  0  0  0  0  0  0  0  0  0  0
   -4.1012    0.3146    0.3064 C   0  0  2  0  0  0  0  0  0  0  0  0
   -3.7900    1.7608    0.1889 N   0  0  0  0  0  0  0  0  0  0  0  0
   -5.4915    0.1460    0.9367 C   0  0  0  0  0  0  0  0  0  0  0  0
   -6.3777    0.9883    0.9722 O   0  0  0  0  0  0  0  0  0  0  0  0
   -5.7406   -1.0970    1.3945 O   0  0  0  0  0  0  0  0  0  0  0  0
    2.8801   -1.0280    1.0310 H   0  0  0  0  0  0  0  0  0  0  0  0
    5.0316   -0.4456    2.0878 H   0  0  0  0  0  0  0  0  0  0  0  0
    6.7979    0.7031    0.7790 H   0  0  0  0  0  0  0  0  0  0  0  0
    6.4101    1.2682   -1.6066 H   0  0  0  0  0  0  0  0  0  0  0  0
    4.2500    0.7031   -2.6816 H   0  0  0  0  0  0  0  0  0  0  0  0
    0.0427   -2.1227   -1.9864 H   0  0  0  0  0  0  0  0  0  0  0  0
   -2.1436   -2.1159   -0.8459 H   0  0  0  0  0  0  0  0  0  0  0  0
   -0.8883    1.2648    1.5264 H   0  0  0  0  0  0  0  0  0  0  0  0
    1.2875    1.2625    0.3857 H   0  0  0  0  0  0  0  0  0  0  0  0
   -2.9208    0.0424    2.1169 H   0  0  0  0  0  0  0  0  0  0  0  0
   -3.3070   -1.4530    1.3127 H   0  0  0  0  0  0  0  0  0  0  0  0
   -4.1697   -0.1042   -0.7051 H   0  0  0  0  0  0  0  0  0  0  0  0
   -3.0193    1.8779   -0.4687 H   0  0  0  0  0  0  0  0  0  0  0  0
   -4.5995    2.2326   -0.2206 H   0  0  0  0  0  0  0  0  0  0  0  0
   -6.6630   -1.0393    1.7237 H   0  0  0  0  0  0  0  0  0  0  0  0
  1  2  2  0
  2  3  1  0
  3  4  2  0
  4  5  1  0
  5  6  2  0
  6  7  1  0
  7  8  2  0
  7  9  1  0
  9 10  2  0
 10 11  1  0
 11 12  2  0
 12 13  1  0
 13 14  2  0
 12 15  1  0
 15 16  1  0
 16 17  1  0
 16 18  1  0
 18 19  2  0
 18 20  1  0
  6  1  1  0
 14  9  1  0
  1 21  1  0
  2 22  1  0
  3 23  1  0
  4 24  1  0
  5 25  1  0
 10 26  1  0
 11 27  1  0
 13 28  1  0
 14 29  1  0
 15 30  1  0
 15 31  1  0
 16 32  1  6
 17 33  1  0
 17 34  1  0
 20 35  1  0
M  END
>  <Name>  (62) 
UA42_pBpF

>  <canvasUID>  (62) 
63

>  <MW>  (62) 
269.2952

>  <AlogP>  (62) 
2.2528

>  <HBA>  (62) 
1

>  <HBD>  (62) 
0

>  <RB>  (62) 
5

>  <PSA>  (62) 
80.39

>  <Estate>  (62) 
54.168

>  <Polar>  (62) 
36.122

>  <Chirality>  (62) 
[(15, 'S')]

$$$$

     RDKit          3D

 25 25  0  0  0  0  0  0  0  0999 V2000
   -2.4044    0.2902    1.8305 O   0  0  0  0  0  0  0  0  0  0  0  0
   -2.5217    0.2410    0.6158 C   0  0  0  0  0  0  0  0  0  0  0  0
   -3.1739    1.2309   -0.0399 O   0  0  0  0  0  0  0  0  0  0  0  0
   -2.0897   -0.9101   -0.3026 C   0  0  1  0  0  0  0  0  0  0  0  0
   -2.0074   -0.4764   -1.7209 N   0  0  0  0  0  0  0  0  0  0  0  0
   -0.7863   -1.5675    0.1842 C   0  0  0  0  0  0  0  0  0  0  0  0
    0.4228   -0.6590    0.2655 C   0  0  0  0  0  0  0  0  0  0  0  0
    1.1322   -0.3044   -0.8915 C   0  0  0  0  0  0  0  0  0  0  0  0
    2.2437    0.5344   -0.8050 C   0  0  0  0  0  0  0  0  0  0  0  0
    2.9297    0.8866   -1.9341 O   0  0  0  0  0  0  0  0  0  0  0  0
    2.6624    1.0216    0.4317 C   0  0  0  0  0  0  0  0  0  0  0  0
    3.7544    1.8409    0.4980 O   0  0  0  0  0  0  0  0  0  0  0  0
    1.9679    0.6790    1.5889 C   0  0  0  0  0  0  0  0  0  0  0  0
    0.8514   -0.1575    1.5042 C   0  0  0  0  0  0  0  0  0  0  0  0
   -3.3622    1.8879    0.6626 H   0  0  0  0  0  0  0  0  0  0  0  0
   -2.8998   -1.6478   -0.2416 H   0  0  0  0  0  0  0  0  0  0  0  0
   -2.2301   -1.2646   -2.3253 H   0  0  0  0  0  0  0  0  0  0  0  0
   -2.7441    0.2206   -1.8680 H   0  0  0  0  0  0  0  0  0  0  0  0
   -0.5372   -2.4167   -0.4667 H   0  0  0  0  0  0  0  0  0  0  0  0
   -0.9606   -2.0102    1.1744 H   0  0  0  0  0  0  0  0  0  0  0  0
    0.8046   -0.6833   -1.8554 H   0  0  0  0  0  0  0  0  0  0  0  0
    2.4544    0.5384   -2.7038 H   0  0  0  0  0  0  0  0  0  0  0  0
    3.9076    2.0835    1.4234 H   0  0  0  0  0  0  0  0  0  0  0  0
    2.2748    1.0529    2.5603 H   0  0  0  0  0  0  0  0  0  0  0  0
    0.3116   -0.4104    2.4154 H   0  0  0  0  0  0  0  0  0  0  0  0
  1  2  2  0
  2  3  1  0
  2  4  1  0
  4  5  1  0
  4  6  1  0
  6  7  1  0
  7  8  2  0
  8  9  1  0
  9 10  1  0
  9 11  2  0
 11 12  1  0
 11 13  1  0
 13 14  2  0
 14  7  1  0
  3 15  1  0
  4 16  1  6
  5 17  1  0
  5 18  1  0
  6 19  1  0
  6 20  1  0
  8 21  1  0
 10 22  1  0
 12 23  1  0
 13 24  1  0
 14 25  1  0
M  END
>  <Name>  (63) 
UA43_DOPA

>  <canvasUID>  (63) 
64

>  <MW>  (63) 
197.1879

>  <AlogP>  (63) 
0.3138

>  <HBA>  (63) 
2

>  <HBD>  (63) 
2

>  <RB>  (63) 
3

>  <PSA>  (63) 
103.78

>  <Estate>  (63) 
45.501

>  <Polar>  (63) 
22.551

>  <Chirality>  (63) 
[(3, 'S')]

$$$$

     RDKit          3D

 36 36  0  0  0  0  0  0  0  0999 V2000
   -5.2181    1.2639    0.6038 O   0  0  0  0  0  0  0  0  0  0  0  0
   -4.0206    1.3719    0.8224 C   0  0  0  0  0  0  0  0  0  0  0  0
   -3.4153    2.5721    0.7472 O   0  0  0  0  0  0  0  0  0  0  0  0
   -3.0655    0.2362    1.2084 C   0  0  1  0  0  0  0  0  0  0  0  0
   -3.8266   -0.8157    1.9276 N   0  0  0  0  0  0  0  0  0  0  0  0
   -2.4186   -0.3979   -0.0300 C   0  0  0  0  0  0  0  0  0  0  0  0
   -1.3665    0.5061   -0.6810 C   0  0  0  0  0  0  0  0  0  0  0  0
   -0.7145   -0.1080   -1.9265 C   0  0  0  0  0  0  0  0  0  0  0  0
    0.0178   -1.4314   -1.6979 C   0  0  0  0  0  0  0  0  0  0  0  0
    1.0275   -1.3483   -0.6628 N   0  0  0  0  0  0  0  0  0  0  0  0
    2.2701   -0.7831   -0.8994 C   0  0  0  0  0  0  0  0  0  0  0  0
    2.5820   -0.3324   -1.9983 O   0  0  0  0  0  0  0  0  0  0  0  0
    3.1907   -0.7790    0.3453 C   0  0  0  0  0  0  0  0  0  0  0  0
    2.7153    0.2231    1.3956 C   0  0  0  0  0  0  0  0  0  0  0  0
    3.6470    1.7406    1.0647 S   0  0  0  0  0  0  0  0  0  0  0  0
    4.6947    0.9659   -0.1859 C   0  0  0  0  0  0  0  0  0  0  0  0
    4.6076   -0.4796    0.0159 N   0  0  0  0  0  0  0  0  0  0  0  0
   -4.1329    3.1921    0.4981 H   0  0  0  0  0  0  0  0  0  0  0  0
   -2.3077    0.6235    1.8981 H   0  0  0  0  0  0  0  0  0  0  0  0
   -4.2687   -0.3912    2.7452 H   0  0  0  0  0  0  0  0  0  0  0  0
   -4.6148   -1.0913    1.3340 H   0  0  0  0  0  0  0  0  0  0  0  0
   -1.9395   -1.3382    0.2686 H   0  0  0  0  0  0  0  0  0  0  0  0
   -3.1869   -0.6499   -0.7725 H   0  0  0  0  0  0  0  0  0  0  0  0
   -0.5943    0.7610    0.0541 H   0  0  0  0  0  0  0  0  0  0  0  0
   -1.8299    1.4510   -0.9860 H   0  0  0  0  0  0  0  0  0  0  0  0
   -0.0101    0.6274   -2.3346 H   0  0  0  0  0  0  0  0  0  0  0  0
   -1.4816   -0.2614   -2.6953 H   0  0  0  0  0  0  0  0  0  0  0  0
   -0.6809   -2.2234   -1.4116 H   0  0  0  0  0  0  0  0  0  0  0  0
    0.5001   -1.7447   -2.6309 H   0  0  0  0  0  0  0  0  0  0  0  0
    0.8149   -1.7471    0.2419 H   0  0  0  0  0  0  0  0  0  0  0  0
    3.1470   -1.7956    0.7567 H   0  0  0  0  0  0  0  0  0  0  0  0
    2.9745   -0.1181    2.4029 H   0  0  0  0  0  0  0  0  0  0  0  0
    1.6425    0.4291    1.3564 H   0  0  0  0  0  0  0  0  0  0  0  0
    5.7284    1.3061   -0.0723 H   0  0  0  0  0  0  0  0  0  0  0  0
    4.3609    1.2576   -1.1856 H   0  0  0  0  0  0  0  0  0  0  0  0
    5.1720   -0.6913    0.8370 H   0  0  0  0  0  0  0  0  0  0  0  0
  1  2  2  0
  2  3  1  0
  2  4  1  0
  4  5  1  0
  4  6  1  0
  6  7  1  0
  7  8  1  0
  8  9  1  0
  9 10  1  0
 10 11  1  0
 11 12  2  0
 11 13  1  0
 13 14  1  0
 14 15  1  0
 15 16  1  0
 16 17  1  0
 17 13  1  0
  3 18  1  0
  4 19  1  1
  5 20  1  0
  5 21  1  0
  6 22  1  0
  6 23  1  0
  7 24  1  0
  7 25  1  0
  8 26  1  0
  8 27  1  0
  9 28  1  0
  9 29  1  0
 10 30  1  0
 13 31  1  0
 14 32  1  0
 14 33  1  0
 16 34  1  0
 16 35  1  0
 17 36  1  0
M  END
>  <Name>  (64) 
UA44_ThzK

>  <canvasUID>  (64) 
65

>  <MW>  (64) 
261.3412

>  <AlogP>  (64) 
-0.7448

>  <HBA>  (64) 
2

>  <HBD>  (64) 
1

>  <RB>  (64) 
7

>  <PSA>  (64) 
129.75

>  <Estate>  (64) 
46.833

>  <Polar>  (64) 
26.212

>  <Chirality>  (64) 
[(3, 'S')]

$$$$

     RDKit          3D

 38 37  0  0  0  0  0  0  0  0999 V2000
   -7.3296   -2.4708    0.0352 C   0  0  0  0  0  0  0  0  0  0  0  0
   -6.6450   -1.5039   -0.1605 C   0  0  0  0  0  0  0  0  0  0  0  0
   -5.8109   -0.3170   -0.4017 C   0  0  0  0  0  0  0  0  0  0  0  0
   -4.3490   -0.5539   -0.0348 C   0  0  0  0  0  0  0  0  0  0  0  0
   -3.6594   -1.5490   -0.9661 C   0  0  0  0  0  0  0  0  0  0  0  0
   -2.2774   -1.6910   -0.5970 O   0  0  0  0  0  0  0  0  0  0  0  0
   -1.4295   -0.7837   -1.1396 C   0  0  0  0  0  0  0  0  0  0  0  0
   -1.7484    0.1301   -1.8841 O   0  0  0  0  0  0  0  0  0  0  0  0
   -0.1664   -1.0486   -0.7074 N   0  0  0  0  0  0  0  0  0  0  0  0
    0.9619   -0.2018   -1.0160 C   0  0  0  0  0  0  0  0  0  0  0  0
    1.0751    0.9583   -0.0289 C   0  0  0  0  0  0  0  0  0  0  0  0
    2.2016    1.9378   -0.3686 C   0  0  0  0  0  0  0  0  0  0  0  0
    3.6153    1.3418   -0.3990 C   0  0  0  0  0  0  0  0  0  0  0  0
    4.0718    0.6593    0.8984 C   0  0  2  0  0  0  0  0  0  0  0  0
    4.0114    1.6036    2.0379 N   0  0  0  0  0  0  0  0  0  0  0  0
    5.4932    0.0981    0.7246 C   0  0  0  0  0  0  0  0  0  0  0  0
    5.9438   -0.4496   -0.2686 O   0  0  0  0  0  0  0  0  0  0  0  0
    6.2577    0.2181    1.8347 O   0  0  0  0  0  0  0  0  0  0  0  0
   -7.9393   -3.3275    0.2095 H   0  0  0  0  0  0  0  0  0  0  0  0
   -5.8901   -0.0101   -1.4509 H   0  0  0  0  0  0  0  0  0  0  0  0
   -6.1956    0.5146    0.2006 H   0  0  0  0  0  0  0  0  0  0  0  0
   -4.2592   -0.9040    1.0016 H   0  0  0  0  0  0  0  0  0  0  0  0
   -3.8160    0.4041   -0.0700 H   0  0  0  0  0  0  0  0  0  0  0  0
   -4.1099   -2.5423   -0.8688 H   0  0  0  0  0  0  0  0  0  0  0  0
   -3.7553   -1.2571   -2.0189 H   0  0  0  0  0  0  0  0  0  0  0  0
   -0.0820   -1.7889   -0.0253 H   0  0  0  0  0  0  0  0  0  0  0  0
    1.8509   -0.8383   -0.9772 H   0  0  0  0  0  0  0  0  0  0  0  0
    0.8527    0.1771   -2.0382 H   0  0  0  0  0  0  0  0  0  0  0  0
    0.1304    1.5172   -0.0176 H   0  0  0  0  0  0  0  0  0  0  0  0
    1.2019    0.5697    0.9884 H   0  0  0  0  0  0  0  0  0  0  0  0
    2.1711    2.7664    0.3494 H   0  0  0  0  0  0  0  0  0  0  0  0
    1.9968    2.3839   -1.3502 H   0  0  0  0  0  0  0  0  0  0  0  0
    3.6840    0.6274   -1.2291 H   0  0  0  0  0  0  0  0  0  0  0  0
    4.3195    2.1462   -0.6532 H   0  0  0  0  0  0  0  0  0  0  0  0
    3.4308   -0.1975    1.1316 H   0  0  0  0  0  0  0  0  0  0  0  0
    4.5857    2.4182    1.8172 H   0  0  0  0  0  0  0  0  0  0  0  0
    4.4994    1.1601    2.8221 H   0  0  0  0  0  0  0  0  0  0  0  0
    7.1083   -0.1969    1.5777 H   0  0  0  0  0  0  0  0  0  0  0  0
  1  2  3  0
  2  3  1  0
  3  4  1  0
  4  5  1  0
  5  6  1  0
  6  7  1  0
  7  8  2  0
  7  9  1  0
  9 10  1  0
 10 11  1  0
 11 12  1  0
 12 13  1  0
 13 14  1  0
 14 15  1  0
 14 16  1  0
 16 17  2  0
 16 18  1  0
  1 19  1  0
  3 20  1  0
  3 21  1  0
  4 22  1  0
  4 23  1  0
  5 24  1  0
  5 25  1  0
  9 26  1  0
 10 27  1  0
 10 28  1  0
 11 29  1  0
 11 30  1  0
 12 31  1  0
 12 32  1  0
 13 33  1  0
 13 34  1  0
 14 35  1  1
 15 36  1  0
 15 37  1  0
 18 38  1  0
M  END
>  <Name>  (65) 
UA45_bmK

>  <canvasUID>  (65) 
66

>  <MW>  (65) 
256.2982

>  <AlogP>  (65) 
2.0422

>  <HBA>  (65) 
2

>  <HBD>  (65) 
2

>  <RB>  (65) 
10

>  <PSA>  (65) 
101.65

>  <Estate>  (65) 
52.667

>  <Polar>  (65) 
25.838

>  <Chirality>  (65) 
[(13, 'S')]

$$$$

     RDKit          3D

 24 24  0  0  0  0  0  0  0  0999 V2000
    4.3169   -0.5588   -0.5339 O   0  0  0  0  0  0  0  0  0  0  0  0
    3.3985    0.0926   -0.0561 C   0  0  0  0  0  0  0  0  0  0  0  0
    3.6755    1.1548    0.7255 O   0  0  0  0  0  0  0  0  0  0  0  0
    1.9020   -0.1020   -0.3413 C   0  0  1  0  0  0  0  0  0  0  0  0
    1.6783   -1.4723   -0.8650 N   0  0  0  0  0  0  0  0  0  0  0  0
    1.0466    0.1480    0.9138 C   0  0  0  0  0  0  0  0  0  0  0  0
   -0.4418    0.1476    0.6364 C   0  0  0  0  0  0  0  0  0  0  0  0
   -1.0655    1.2869    0.1062 C   0  0  0  0  0  0  0  0  0  0  0  0
   -2.4380    1.2804   -0.1650 C   0  0  0  0  0  0  0  0  0  0  0  0
   -3.2960    3.0160   -0.9555 I   0  0  0  0  0  0  0  0  0  0  0  0
   -3.1935    0.1340    0.0920 C   0  0  0  0  0  0  0  0  0  0  0  0
   -4.5351    0.1155   -0.1705 O   0  0  0  0  0  0  0  0  0  0  0  0
   -2.5815   -1.0040    0.6175 C   0  0  0  0  0  0  0  0  0  0  0  0
   -1.2112   -0.9961    0.8873 C   0  0  0  0  0  0  0  0  0  0  0  0
    4.6552    1.1534    0.7770 H   0  0  0  0  0  0  0  0  0  0  0  0
    1.6445    0.6131   -1.1322 H   0  0  0  0  0  0  0  0  0  0  0  0
    0.7625   -1.5082   -1.3118 H   0  0  0  0  0  0  0  0  0  0  0  0
    2.3699   -1.6550   -1.5958 H   0  0  0  0  0  0  0  0  0  0  0  0
    1.2978    1.1156    1.3674 H   0  0  0  0  0  0  0  0  0  0  0  0
    1.2820   -0.5961    1.6872 H   0  0  0  0  0  0  0  0  0  0  0  0
   -0.4749    2.1792   -0.0900 H   0  0  0  0  0  0  0  0  0  0  0  0
   -4.8997   -0.7465    0.0870 H   0  0  0  0  0  0  0  0  0  0  0  0
   -3.1511   -1.9057    0.8217 H   0  0  0  0  0  0  0  0  0  0  0  0
   -0.7417   -1.8924    1.2899 H   0  0  0  0  0  0  0  0  0  0  0  0
  1  2  2  0
  2  3  1  0
  2  4  1  0
  4  5  1  0
  4  6  1  0
  6  7  1  0
  7  8  2  0
  8  9  1  0
  9 10  1  0
  9 11  2  0
 11 12  1  0
 11 13  1  0
 13 14  2  0
 14  7  1  0
  3 15  1  0
  4 16  1  6
  5 17  1  0
  5 18  1  0
  6 19  1  0
  6 20  1  0
  8 21  1  0
 12 22  1  0
 13 23  1  0
 14 24  1  0
M  END
>  <Name>  (66) 
UA46_iodoY

>  <canvasUID>  (66) 
67

>  <MW>  (66) 
307.0851

>  <AlogP>  (66) 
1.1594

>  <HBA>  (66) 
1

>  <HBD>  (66) 
1

>  <RB>  (66) 
3

>  <PSA>  (66) 
83.55

>  <Estate>  (66) 
41.621

>  <Polar>  (66) 
26.942

>  <Chirality>  (66) 
[(3, 'S')]

$$$$

     RDKit          3D

 25 25  0  0  0  0  0  0  0  0999 V2000
   -4.1290    0.4703    0.7773 O   0  0  0  0  0  0  0  0  0  0  0  0
   -3.5331   -0.3795    0.1354 C   0  0  0  0  0  0  0  0  0  0  0  0
   -4.2190   -1.4000   -0.4343 O   0  0  0  0  0  0  0  0  0  0  0  0
   -2.0180   -0.5001   -0.0682 C   0  0  1  0  0  0  0  0  0  0  0  0
   -1.7312   -0.9534   -1.4520 N   0  0  0  0  0  0  0  0  0  0  0  0
   -1.3343    0.8432    0.2374 C   0  0  0  0  0  0  0  0  0  0  0  0
    0.1749    0.7464    0.2927 C   0  0  0  0  0  0  0  0  0  0  0  0
    0.8168    0.3052    1.4570 C   0  0  0  0  0  0  0  0  0  0  0  0
    2.2098    0.2048    1.5005 C   0  0  0  0  0  0  0  0  0  0  0  0
    2.9806    0.5297    0.3807 C   0  0  0  0  0  0  0  0  0  0  0  0
    2.3420    0.9845   -0.7762 C   0  0  0  0  0  0  0  0  0  0  0  0
    0.9496    1.0866   -0.8236 C   0  0  0  0  0  0  0  0  0  0  0  0
    4.3784    0.4410    0.4341 N   0  0  0  0  0  0  0  0  0  0  0  0
    4.7924   -0.6669    0.0405 N   0  0  0  0  0  4  0  0  0  0  0  0
    5.1814   -1.6780   -0.3172 N   0  0  0  0  0  2  0  0  0  0  0  0
   -5.1553   -1.1874   -0.2377 H   0  0  0  0  0  0  0  0  0  0  0  0
   -1.6716   -1.2703    0.6320 H   0  0  0  0  0  0  0  0  0  0  0  0
   -0.7567   -1.2492   -1.5022 H   0  0  0  0  0  0  0  0  0  0  0  0
   -2.2983   -1.7866   -1.6270 H   0  0  0  0  0  0  0  0  0  0  0  0
   -1.6840    1.2357    1.2019 H   0  0  0  0  0  0  0  0  0  0  0  0
   -1.6321    1.6001   -0.5011 H   0  0  0  0  0  0  0  0  0  0  0  0
    0.2389    0.0468    2.3419 H   0  0  0  0  0  0  0  0  0  0  0  0
    2.6965   -0.1237    2.4153 H   0  0  0  0  0  0  0  0  0  0  0  0
    2.9300    1.2654   -1.6463 H   0  0  0  0  0  0  0  0  0  0  0  0
    0.4714    1.4354   -1.7374 H   0  0  0  0  0  0  0  0  0  0  0  0
  1  2  2  0
  2  3  1  0
  2  4  1  0
  4  5  1  0
  4  6  1  0
  6  7  1  0
  7  8  2  0
  8  9  1  0
  9 10  2  0
 10 11  1  0
 11 12  2  0
 10 13  1  0
 13 14  2  0
 14 15  2  0
 12  7  1  0
  3 16  1  0
  4 17  1  1
  5 18  1  0
  5 19  1  0
  6 20  1  0
  6 21  1  0
  8 22  1  0
  9 23  1  0
 11 24  1  0
 12 25  1  0
M  CHG  2  14   1  15  -1
M  END
>  <Name>  (67) 
UA47_pAzF

>  <canvasUID>  (67) 
68

>  <MW>  (67) 
206.2013

>  <AlogP>  (67) 
-0.3256

>  <HBA>  (67) 
0

>  <HBD>  (67) 
0

>  <RB>  (67) 
4

>  <PSA>  (67) 
75.68

>  <Estate>  (67) 
36.834

>  <Polar>  (67) 
23.848

>  <Chirality>  (67) 
[(3, 'S')]

$$$$

     RDKit          3D

 29 30  0  0  0  0  0  0  0  0999 V2000
   -5.2656   -0.2176   -0.2876 O   0  0  0  0  0  0  0  0  0  0  0  0
   -4.2357    0.4396   -0.3170 C   0  0  0  0  0  0  0  0  0  0  0  0
   -4.2097    1.6385   -0.9320 O   0  0  0  0  0  0  0  0  0  0  0  0
   -2.8939    0.0536    0.3125 C   0  0  1  0  0  0  0  0  0  0  0  0
   -3.0903   -1.1101    1.2186 N   0  0  0  0  0  0  0  0  0  0  0  0
   -1.8803   -0.2624   -0.8005 C   0  0  0  0  0  0  0  0  0  0  0  0
   -0.4426   -0.1337   -0.3505 C   0  0  0  0  0  0  0  0  0  0  0  0
    0.2859    1.0276   -0.6263 C   0  0  0  0  0  0  0  0  0  0  0  0
    1.6124    1.1499   -0.2007 C   0  0  0  0  0  0  0  0  0  0  0  0
    2.2529    0.1231    0.5157 C   0  0  0  0  0  0  0  0  0  0  0  0
    3.6894    0.2520    0.9611 C   0  0  0  0  0  0  0  0  0  0  0  0
    4.7620   -0.2427    0.0409 C   0  0  0  0  0  0  0  0  0  0  0  0
    4.7256    0.4056   -1.1525 F   0  0  0  0  0  0  0  0  0  0  0  0
    4.6194   -1.5686   -0.2173 F   0  0  0  0  0  0  0  0  0  0  0  0
    6.0103   -0.0698    0.5466 F   0  0  0  0  0  0  0  0  0  0  0  0
    3.9979    1.3602    1.8837 N   0  0  0  0  0  0  0  0  0  0  0  0
    3.9348    0.2406    2.4146 N   0  0  0  0  0  0  0  0  0  0  0  0
    1.5017   -1.0328    0.7915 C   0  0  0  0  0  0  0  0  0  0  0  0
    0.1760   -1.1614    0.3667 C   0  0  0  0  0  0  0  0  0  0  0  0
   -5.1256    1.7601   -1.2614 H   0  0  0  0  0  0  0  0  0  0  0  0
   -2.5634    0.9002    0.9260 H   0  0  0  0  0  0  0  0  0  0  0  0
   -3.5757   -1.8412    0.6922 H   0  0  0  0  0  0  0  0  0  0  0  0
   -3.7602   -0.8391    1.9412 H   0  0  0  0  0  0  0  0  0  0  0  0
   -2.0450   -1.2726   -1.2003 H   0  0  0  0  0  0  0  0  0  0  0  0
   -2.0344    0.4015   -1.6616 H   0  0  0  0  0  0  0  0  0  0  0  0
   -0.1721    1.8493   -1.1733 H   0  0  0  0  0  0  0  0  0  0  0  0
    2.1523    2.0679   -0.4298 H   0  0  0  0  0  0  0  0  0  0  0  0
    1.9501   -1.8505    1.3544 H   0  0  0  0  0  0  0  0  0  0  0  0
   -0.3763   -2.0671    0.6118 H   0  0  0  0  0  0  0  0  0  0  0  0
  1  2  2  0
  2  3  1  0
  2  4  1  0
  4  5  1  0
  4  6  1  0
  6  7  1  0
  7  8  2  0
  8  9  1  0
  9 10  2  0
 10 11  1  0
 11 12  1  0
 12 13  1  0
 12 14  1  0
 12 15  1  0
 11 16  1  0
 16 17  2  0
 10 18  1  0
 18 19  2  0
 19  7  1  0
 17 11  1  0
  3 20  1  0
  4 21  1  1
  5 22  1  0
  5 23  1  0
  6 24  1  0
  6 25  1  0
  8 26  1  0
  9 27  1  0
 18 28  1  0
 19 29  1  0
M  END
>  <Name>  (68) 
UA48_tmdF

>  <canvasUID>  (68) 
69

>  <MW>  (68) 
273.2112

>  <AlogP>  (68) 
1.8109

>  <HBA>  (68) 
2

>  <HBD>  (68) 
0

>  <RB>  (68) 
5

>  <PSA>  (68) 
88.04

>  <Estate>  (68) 
66.334

>  <Polar>  (68) 
25.96

>  <Chirality>  (68) 
[(3, 'S')]

$$$$

     RDKit          3D

 31 32  0  0  0  0  0  0  0  0999 V2000
   -4.1459    1.1373   -1.3231 O   0  0  0  0  0  0  0  0  0  0  0  0
   -3.9585    0.1041   -0.6995 C   0  0  0  0  0  0  0  0  0  0  0  0
   -4.0576   -1.0898   -1.3292 O   0  0  0  0  0  0  0  0  0  0  0  0
   -3.6624   -0.0178    0.8015 C   0  0  1  0  0  0  0  0  0  0  0  0
   -3.2358   -1.3955    1.1654 N   0  0  0  0  0  0  0  0  0  0  0  0
   -2.6615    1.0565    1.2658 C   0  0  0  0  0  0  0  0  0  0  0  0
   -1.2669    0.9408    0.6895 C   0  0  0  0  0  0  0  0  0  0  0  0
   -0.2925    0.1704    1.3314 C   0  0  0  0  0  0  0  0  0  0  0  0
    0.9957    0.0490    0.7944 C   0  0  0  0  0  0  0  0  0  0  0  0
    1.3507    0.6982   -0.3907 C   0  0  0  0  0  0  0  0  0  0  0  0
    0.3649    1.4695   -1.0268 C   0  0  0  0  0  0  0  0  0  0  0  0
   -0.9242    1.5934   -0.4968 C   0  0  0  0  0  0  0  0  0  0  0  0
    2.6133    0.6085   -0.9867 N   0  0  0  0  0  0  0  0  0  0  0  0
    3.7868   -0.0742   -0.6610 C   0  0  0  0  0  0  0  0  0  0  0  0
    4.8468    0.1306   -1.4735 N   0  0  0  0  0  0  0  0  0  0  0  0
    6.0292   -0.5014   -1.2273 N   0  0  0  0  0  0  0  0  0  0  0  0
    6.0936   -1.3180   -0.1685 C   0  0  0  0  0  0  0  0  0  0  0  0
    5.0632   -1.5445    0.6545 N   0  0  0  0  0  0  0  0  0  0  0  0
    3.8865   -0.9050    0.3950 N   0  0  0  0  0  0  0  0  0  0  0  0
   -4.2540   -0.8492   -2.2590 H   0  0  0  0  0  0  0  0  0  0  0  0
   -4.6195    0.1569    1.3077 H   0  0  0  0  0  0  0  0  0  0  0  0
   -3.8780   -2.0398    0.6948 H   0  0  0  0  0  0  0  0  0  0  0  0
   -2.3395   -1.5755    0.7067 H   0  0  0  0  0  0  0  0  0  0  0  0
   -3.0557    2.0533    1.0260 H   0  0  0  0  0  0  0  0  0  0  0  0
   -2.5899    1.0336    2.3618 H   0  0  0  0  0  0  0  0  0  0  0  0
   -0.5274   -0.3489    2.2594 H   0  0  0  0  0  0  0  0  0  0  0  0
    1.7074   -0.5642    1.3386 H   0  0  0  0  0  0  0  0  0  0  0  0
    0.5903    1.9915   -1.9541 H   0  0  0  0  0  0  0  0  0  0  0  0
   -1.6541    2.2077   -1.0213 H   0  0  0  0  0  0  0  0  0  0  0  0
    2.7677    1.1767   -1.8075 H   0  0  0  0  0  0  0  0  0  0  0  0
    7.0275   -1.8213    0.0324 H   0  0  0  0  0  0  0  0  0  0  0  0
  1  2  2  0
  2  3  1  0
  2  4  1  0
  4  5  1  0
  4  6  1  0
  6  7  1  0
  7  8  2  0
  8  9  1  0
  9 10  2  0
 10 11  1  0
 11 12  2  0
 10 13  1  0
 13 14  1  0
 14 15  2  0
 15 16  1  0
 16 17  2  0
 17 18  1  0
 18 19  2  0
 12  7  1  0
 19 14  1  0
  3 20  1  0
  4 21  1  1
  5 22  1  0
  5 23  1  0
  6 24  1  0
  6 25  1  0
  8 26  1  0
  9 27  1  0
 11 28  1  0
 12 29  1  0
 13 30  1  0
 17 31  1  0
M  END
>  <Name>  (69) 
UA49_Tz12Y

>  <canvasUID>  (69) 
70

>  <MW>  (69) 
260.252

>  <AlogP>  (69) 
0.7287

>  <HBA>  (69) 
4

>  <HBD>  (69) 
1

>  <RB>  (69) 
5

>  <PSA>  (69) 
126.91

>  <Estate>  (69) 
52.001

>  <Polar>  (69) 
30.54

>  <Chirality>  (69) 
[(3, 'S')]

$$$$

     RDKit          3D

 28 28  0  0  0  0  0  0  0  0999 V2000
   -4.9697    0.4215    0.2008 O   0  0  0  0  0  0  0  0  0  0  0  0
   -4.0984   -0.3037   -0.3411 C   0  0  0  0  0  0  0  0  0  0  0  0
   -4.5207   -1.5379   -0.8354 O   0  0  0  0  0  0  0  0  0  0  0  0
   -2.6754    0.1057   -0.4653 C   0  0  1  0  0  0  0  0  0  0  0  0
   -2.5603    1.4359    0.1437 N   0  0  0  0  0  0  0  0  0  0  0  0
   -1.8178   -0.8268    0.3523 C   0  0  0  0  0  0  0  0  0  0  0  0
   -0.3813   -0.4871    0.2825 C   0  0  0  0  0  0  0  0  0  0  0  0
    0.2467    0.3605    1.1378 C   0  0  0  0  0  0  0  0  0  0  0  0
    1.6144    0.6514    1.0280 C   0  0  0  0  0  0  0  0  0  0  0  0
    2.3789    0.1131    0.0767 C   0  0  0  0  0  0  0  0  0  0  0  0
    4.0811    0.5598   -0.0687 S   0  0  0  0  0  6  0  0  0  0  0  0
    5.0310    0.6447    1.8791 F   0  0  0  0  0  0  0  0  0  0  0  0
    4.7471    2.2308    0.5941 F   0  0  0  0  0  0  0  0  0  0  0  0
    4.7507   -1.1377    0.7795 F   0  0  0  0  0  0  0  0  0  0  0  0
    5.4298   -0.3821   -1.1135 F   0  0  0  0  0  0  0  0  0  0  0  0
    4.3173    1.4434   -1.3166 F   0  0  0  0  0  0  0  0  0  0  0  0
    1.7381   -0.7448   -0.7851 C   0  0  0  0  0  0  0  0  0  0  0  0
    0.3686   -1.0708   -0.7195 C   0  0  0  0  0  0  0  0  0  0  0  0
   -5.4300   -1.6652   -1.2665 H   0  0  0  0  0  0  0  0  0  0  0  0
   -2.3897    0.1501   -1.5143 H   0  0  0  0  0  0  0  0  0  0  0  0
   -2.7717    1.3964    1.1578 H   0  0  0  0  0  0  0  0  0  0  0  0
   -3.2412    2.0815   -0.3133 H   0  0  0  0  0  0  0  0  0  0  0  0
   -2.1143   -0.8325    1.4109 H   0  0  0  0  0  0  0  0  0  0  0  0
   -1.9379   -1.8632   -0.0203 H   0  0  0  0  0  0  0  0  0  0  0  0
   -0.2730    0.8336    1.9210 H   0  0  0  0  0  0  0  0  0  0  0  0
    2.0486    1.3287    1.7357 H   0  0  0  0  0  0  0  0  0  0  0  0
    2.4094   -1.1607   -1.5408 H   0  0  0  0  0  0  0  0  0  0  0  0
    0.0195   -1.7448   -1.4524 H   0  0  0  0  0  0  0  0  0  0  0  0
  1  2  2  0
  2  3  1  0
  2  4  1  0
  4  5  1  0
  4  6  1  0
  6  7  1  0
  7  8  2  0
  8  9  1  0
  9 10  2  0
 10 11  1  0
 11 12  1  0
 11 13  1  0
 11 14  1  0
 11 15  1  0
 11 16  1  0
 10 17  1  0
 17 18  2  0
 18  7  1  0
  3 19  1  0
  4 20  1  6
  5 21  1  0
  5 22  1  0
  6 23  1  0
  6 24  1  0
  8 25  1  0
  9 26  1  0
 17 27  1  0
 18 28  1  0
M  END
>  <Name>  (70) 
UA50_SF5F

>  <canvasUID>  (70) 
71

>  <MW>  (70) 
291.2382

>  <AlogP>  (70) 
2.2821

>  <HBA>  (70) 
0

>  <HBD>  (70) 
0

>  <RB>  (70) 
4

>  <PSA>  (70) 
88.62

>  <Estate>  (70) 
74.445

>  <Polar>  (70) 
25.37

>  <Chirality>  (70) 
[(3, 'S')]

$$$$

     RDKit          3D

 26 26  0  0  0  0  0  0  0  0999 V2000
   -4.1677    1.7775   -0.5455 O   0  0  0  0  0  0  0  0  0  0  0  0
   -3.7149    0.6760   -0.2753 C   0  0  0  0  0  0  0  0  0  0  0  0
   -4.4309   -0.4394   -0.5476 O   0  0  0  0  0  0  0  0  0  0  0  0
   -2.3228    0.3885    0.2886 C   0  0  1  0  0  0  0  0  0  0  0  0
   -2.3569   -0.8128    1.1582 N   0  0  0  0  0  0  0  0  0  0  0  0
   -1.3548    0.2525   -0.8994 C   0  0  0  0  0  0  0  0  0  0  0  0
    0.0970    0.1323   -0.4948 C   0  0  0  0  0  0  0  0  0  0  0  0
    0.7822    1.2368    0.0270 C   0  0  0  0  0  0  0  0  0  0  0  0
    2.1212    1.1248    0.4085 C   0  0  0  0  0  0  0  0  0  0  0  0
    0.7747   -1.0858   -0.6306 C   0  0  0  0  0  0  0  0  0  0  0  0
    2.1138   -1.1978   -0.2493 C   0  0  0  0  0  0  0  0  0  0  0  0
    2.8040   -0.0918    0.2676 C   0  0  0  0  0  0  0  0  0  0  0  0
    4.2441   -0.2195    0.6993 C   0  0  0  0  0  0  0  0  0  0  0  0
    4.9423   -1.1328   -0.0326 F   0  0  0  0  0  0  0  0  0  0  0  0
    4.3623   -0.6126    1.9975 F   0  0  0  0  0  0  0  0  0  0  0  0
    4.9406    0.9471    0.5966 F   0  0  0  0  0  0  0  0  0  0  0  0
   -5.2875   -0.0916   -0.8728 H   0  0  0  0  0  0  0  0  0  0  0  0
   -2.0496    1.2387    0.9238 H   0  0  0  0  0  0  0  0  0  0  0  0
   -1.4021   -1.1109    1.3548 H   0  0  0  0  0  0  0  0  0  0  0  0
   -2.8002   -1.5698    0.6337 H   0  0  0  0  0  0  0  0  0  0  0  0
   -1.4519    1.1231   -1.5627 H   0  0  0  0  0  0  0  0  0  0  0  0
   -1.6405   -0.6093   -1.5183 H   0  0  0  0  0  0  0  0  0  0  0  0
    0.2782    2.1951    0.1406 H   0  0  0  0  0  0  0  0  0  0  0  0
    2.6329    1.9961    0.8155 H   0  0  0  0  0  0  0  0  0  0  0  0
    0.2655   -1.9590   -1.0344 H   0  0  0  0  0  0  0  0  0  0  0  0
    2.6210   -2.1555   -0.3608 H   0  0  0  0  0  0  0  0  0  0  0  0
  1  2  2  0
  2  3  1  0
  2  4  1  0
  4  5  1  0
  4  6  1  0
  6  7  1  0
  7  8  2  0
  8  9  1  0
  7 10  1  0
 10 11  2  0
 11 12  1  0
 12 13  1  0
 13 14  1  0
 13 15  1  0
 13 16  1  0
 12  9  2  0
  3 17  1  0
  4 18  1  1
  5 19  1  0
  5 20  1  0
  6 21  1  0
  6 22  1  0
  8 23  1  0
  9 24  1  0
 10 25  1  0
 11 26  1  0
M  END
>  <Name>  (71) 
UA51_CF3F

>  <canvasUID>  (71) 
72

>  <MW>  (71) 
233.1871

>  <AlogP>  (71) 
1.7909

>  <HBA>  (71) 
0

>  <HBD>  (71) 
0

>  <RB>  (71) 
4

>  <PSA>  (71) 
63.32

>  <Estate>  (71) 
59.084

>  <Polar>  (71) 
22.839

>  <Chirality>  (71) 
[(3, 'S')]

$$$$

     RDKit          3D

 23 23  0  0  0  0  0  0  0  0999 V2000
   -1.8147   -1.6418    1.1645 O   0  0  0  0  0  0  0  0  0  0  0  0
   -2.1404   -0.6273    0.5696 C   0  0  0  0  0  0  0  0  0  0  0  0
   -2.9621    0.2726    1.1619 O   0  0  0  0  0  0  0  0  0  0  0  0
   -1.6918   -0.1991   -0.8309 C   0  0  1  0  0  0  0  0  0  0  0  0
   -2.8665    0.2991   -1.5918 N   0  0  0  0  0  0  0  0  0  0  0  0
   -0.6003    0.8792   -0.7313 C   0  0  0  0  0  0  0  0  0  0  0  0
    0.7078    0.3620   -0.1778 C   0  0  0  0  0  0  0  0  0  0  0  0
    1.0793    0.6379    1.1458 C   0  0  0  0  0  0  0  0  0  0  0  0
    2.2834    0.1498    1.6586 C   0  0  0  0  0  0  0  0  0  0  0  0
    3.1207   -0.6161    0.8511 C   0  0  0  0  0  0  0  0  0  0  0  0
    4.6049   -1.2150    1.4829 Cl  0  0  0  0  0  0  0  0  0  0  0  0
    2.7645   -0.8989   -0.4654 C   0  0  0  0  0  0  0  0  0  0  0  0
    1.5605   -0.4116   -0.9789 C   0  0  0  0  0  0  0  0  0  0  0  0
   -3.1878   -0.1594    2.0127 H   0  0  0  0  0  0  0  0  0  0  0  0
   -1.3222   -1.0906   -1.3497 H   0  0  0  0  0  0  0  0  0  0  0  0
   -3.3397    0.9991   -1.0146 H   0  0  0  0  0  0  0  0  0  0  0  0
   -2.5550    0.7783   -2.4342 H   0  0  0  0  0  0  0  0  0  0  0  0
   -0.9482    1.7229   -0.1202 H   0  0  0  0  0  0  0  0  0  0  0  0
   -0.3962    1.2995   -1.7256 H   0  0  0  0  0  0  0  0  0  0  0  0
    0.4339    1.2313    1.7901 H   0  0  0  0  0  0  0  0  0  0  0  0
    2.5596    0.3677    2.6867 H   0  0  0  0  0  0  0  0  0  0  0  0
    3.4165   -1.4982   -1.0950 H   0  0  0  0  0  0  0  0  0  0  0  0
    1.2939   -0.6414   -2.0085 H   0  0  0  0  0  0  0  0  0  0  0  0
  1  2  2  0
  2  3  1  0
  2  4  1  0
  4  5  1  0
  4  6  1  0
  6  7  1  0
  7  8  2  0
  8  9  1  0
  9 10  2  0
 10 11  1  0
 10 12  1  0
 12 13  2  0
 13  7  1  0
  3 14  1  0
  4 15  1  6
  5 16  1  0
  5 17  1  0
  6 18  1  0
  6 19  1  0
  8 20  1  0
  9 21  1  0
 12 22  1  0
 13 23  1  0
M  END
>  <Name>  (72) 
UA52_ClF

>  <canvasUID>  (72) 
73

>  <MW>  (72) 
199.6342

>  <AlogP>  (72) 
1.513

>  <HBA>  (72) 
0

>  <HBD>  (72) 
0

>  <RB>  (72) 
3

>  <PSA>  (72) 
63.32

>  <Estate>  (72) 
37.945

>  <Polar>  (72) 
23.247

>  <Chirality>  (72) 
[(3, 'S')]

$$$$

     RDKit          3D

 45 46  0  0  0  0  0  0  0  0999 V2000
    7.4421    1.5288    0.2034 O   0  0  0  0  0  0  0  0  0  0  0  0
    6.6839    0.6107   -0.0729 C   0  0  0  0  0  0  0  0  0  0  0  0
    6.4882    0.2494   -1.3559 O   0  0  0  0  0  0  0  0  0  0  0  0
    5.8994   -0.2514    0.9243 C   0  0  1  0  0  0  0  0  0  0  0  0
    6.3180    0.0753    2.3078 N   0  0  0  0  0  0  0  0  0  0  0  0
    4.3913   -0.0249    0.7509 C   0  0  0  0  0  0  0  0  0  0  0  0
    3.5445   -0.9382    1.6455 C   0  0  0  0  0  0  0  0  0  0  0  0
    2.0433   -0.8299    1.3649 C   0  0  0  0  0  0  0  0  0  0  0  0
    1.4541    0.5264    1.7486 C   0  0  0  0  0  0  0  0  0  0  0  0
    0.0240    0.5551    1.5495 N   0  0  0  0  0  0  0  0  0  0  0  0
   -0.5471    0.7997    0.3388 C   0  0  0  0  0  0  0  0  0  0  0  0
    0.0528    1.0873   -0.6852 O   0  0  0  0  0  0  0  0  0  0  0  0
   -1.8905    0.6614    0.4498 O   0  0  0  0  0  0  0  0  0  0  0  0
   -2.6069    0.8886   -0.7717 C   0  0  0  0  0  0  0  0  0  0  0  0
   -4.0961    0.6691   -0.5086 C   0  0  0  0  0  0  0  0  0  0  0  0
   -4.9642    0.9045   -1.7845 C   0  0  0  0  0  0  0  0  0  0  0  0
   -5.7315   -0.4282   -1.9304 C   0  0  0  0  0  0  0  0  0  0  0  0
   -4.6542   -1.4351   -1.5188 C   0  0  0  0  0  0  0  0  0  0  0  0
   -6.6548   -0.5748   -0.7436 C   0  0  0  0  0  0  0  0  0  0  0  0
   -5.8850   -0.8071    0.3307 C   0  0  0  0  0  0  0  0  0  0  0  0
   -4.4451   -0.7988   -0.1393 C   0  0  0  0  0  0  0  0  0  0  0  0
    7.0433    0.8731   -1.8697 H   0  0  0  0  0  0  0  0  0  0  0  0
    6.1583   -1.2986    0.7326 H   0  0  0  0  0  0  0  0  0  0  0  0
    6.1796    1.0788    2.4512 H   0  0  0  0  0  0  0  0  0  0  0  0
    7.3323   -0.0416    2.3671 H   0  0  0  0  0  0  0  0  0  0  0  0
    4.1546    1.0277    0.9517 H   0  0  0  0  0  0  0  0  0  0  0  0
    4.1159   -0.2029   -0.2963 H   0  0  0  0  0  0  0  0  0  0  0  0
    3.8486   -1.9792    1.4798 H   0  0  0  0  0  0  0  0  0  0  0  0
    3.7309   -0.7172    2.7029 H   0  0  0  0  0  0  0  0  0  0  0  0
    1.5268   -1.6154    1.9317 H   0  0  0  0  0  0  0  0  0  0  0  0
    1.8486   -1.0398    0.3057 H   0  0  0  0  0  0  0  0  0  0  0  0
    1.9004    1.3288    1.1526 H   0  0  0  0  0  0  0  0  0  0  0  0
    1.6367    0.7404    2.8067 H   0  0  0  0  0  0  0  0  0  0  0  0
   -0.6024    0.2539    2.2826 H   0  0  0  0  0  0  0  0  0  0  0  0
   -2.4418    1.9230   -1.0971 H   0  0  0  0  0  0  0  0  0  0  0  0
   -2.2362    0.2076   -1.5462 H   0  0  0  0  0  0  0  0  0  0  0  0
   -4.4097    1.3436    0.2997 H   0  0  0  0  0  0  0  0  0  0  0  0
   -4.3390    1.0865   -2.6661 H   0  0  0  0  0  0  0  0  0  0  0  0
   -5.6377    1.7591   -1.6569 H   0  0  0  0  0  0  0  0  0  0  0  0
   -6.1951   -0.6105   -2.9002 H   0  0  0  0  0  0  0  0  0  0  0  0
   -5.0195   -2.4691   -1.4700 H   0  0  0  0  0  0  0  0  0  0  0  0
   -3.7669   -1.4062   -2.1595 H   0  0  0  0  0  0  0  0  0  0  0  0
   -7.7286   -0.4663   -0.7592 H   0  0  0  0  0  0  0  0  0  0  0  0
   -6.2157   -0.9186    1.3521 H   0  0  0  0  0  0  0  0  0  0  0  0
   -3.7499   -1.3251    0.5157 H   0  0  0  0  0  0  0  0  0  0  0  0
  1  2  2  0
  2  3  1  0
  2  4  1  0
  4  5  1  0
  4  6  1  0
  6  7  1  0
  7  8  1  0
  8  9  1  0
  9 10  1  0
 10 11  1  0
 11 12  2  0
 11 13  1  0
 13 14  1  0
 14 15  1  0
 15 16  1  0
 16 17  1  0
 17 18  1  0
 17 19  1  0
 19 20  2  0
 20 21  1  0
 21 15  1  0
 21 18  1  0
  3 22  1  0
  4 23  1  6
  5 24  1  0
  5 25  1  0
  6 26  1  0
  6 27  1  0
  7 28  1  0
  7 29  1  0
  8 30  1  0
  8 31  1  0
  9 32  1  0
  9 33  1  0
 10 34  1  0
 14 35  1  0
 14 36  1  0
 15 37  1  0
 16 38  1  0
 16 39  1  0
 17 40  1  0
 18 41  1  0
 18 42  1  0
 19 43  1  0
 20 44  1  0
 21 45  1  0
M  END
>  <Name>  (73) 
UA53_NbK

>  <canvasUID>  (73) 
74

>  <MW>  (73) 
296.3621

>  <AlogP>  (73) 
1.4926

>  <HBA>  (73) 
2

>  <HBD>  (73) 
1

>  <RB>  (73) 
9

>  <PSA>  (73) 
101.65

>  <Estate>  (73) 
54.166

>  <Polar>  (73) 
30.707

>  <Chirality>  (73) 
[(3, 'S')]

$$$$

     RDKit          3D

 35 36  0  0  0  0  0  0  0  0999 V2000
   -3.3438    2.3217   -0.7596 O   0  0  0  0  0  0  0  0  0  0  0  0
   -3.7115    1.3460   -0.1206 C   0  0  0  0  0  0  0  0  0  0  0  0
   -4.0325    1.4833    1.1829 O   0  0  0  0  0  0  0  0  0  0  0  0
   -3.9856   -0.0579   -0.6745 C   0  0  1  0  0  0  0  0  0  0  0  0
   -3.4864   -0.1730   -2.0664 N   0  0  0  0  0  0  0  0  0  0  0  0
   -3.4398   -1.1777    0.2309 C   0  0  0  0  0  0  0  0  0  0  0  0
   -1.9657   -1.0977    0.5671 C   0  0  0  0  0  0  0  0  0  0  0  0
   -1.5508   -0.6819    1.8412 C   0  0  0  0  0  0  0  0  0  0  0  0
   -0.1926   -0.5998    2.1538 C   0  0  0  0  0  0  0  0  0  0  0  0
    0.7626   -0.9191    1.1909 C   0  0  0  0  0  0  0  0  0  0  0  0
    0.3652   -1.3635   -0.0706 C   0  0  0  0  0  0  0  0  0  0  0  0
   -0.9938   -1.4441   -0.3816 C   0  0  0  0  0  0  0  0  0  0  0  0
    2.0838   -0.8407    1.5665 O   0  0  0  0  0  0  0  0  0  0  0  0
    2.9472   -0.1869    0.7160 C   0  0  0  0  0  0  0  0  0  0  0  0
    2.6373    1.0320    0.1036 C   0  0  0  0  0  0  0  0  0  0  0  0
    3.5761    1.6560   -0.7211 C   0  0  0  0  0  0  0  0  0  0  0  0
    4.8213    1.0625   -0.9111 C   0  0  0  0  0  0  0  0  0  0  0  0
    5.7665    1.6376   -1.7079 O   0  0  0  0  0  0  0  0  0  0  0  0
    5.1443   -0.1377   -0.2869 C   0  0  0  0  0  0  0  0  0  0  0  0
    4.2064   -0.7618    0.5361 C   0  0  0  0  0  0  0  0  0  0  0  0
   -3.8182    2.4221    1.3690 H   0  0  0  0  0  0  0  0  0  0  0  0
   -5.0782   -0.1483   -0.7250 H   0  0  0  0  0  0  0  0  0  0  0  0
   -3.6678    0.7107   -2.5486 H   0  0  0  0  0  0  0  0  0  0  0  0
   -4.0115   -0.8930   -2.5578 H   0  0  0  0  0  0  0  0  0  0  0  0
   -4.0149   -1.1884    1.1667 H   0  0  0  0  0  0  0  0  0  0  0  0
   -3.6368   -2.1553   -0.2301 H   0  0  0  0  0  0  0  0  0  0  0  0
   -2.2839   -0.4183    2.6006 H   0  0  0  0  0  0  0  0  0  0  0  0
    0.1202   -0.2807    3.1439 H   0  0  0  0  0  0  0  0  0  0  0  0
    1.1029   -1.6471   -0.8159 H   0  0  0  0  0  0  0  0  0  0  0  0
   -1.2899   -1.7765   -1.3745 H   0  0  0  0  0  0  0  0  0  0  0  0
    1.6712    1.5027    0.2650 H   0  0  0  0  0  0  0  0  0  0  0  0
    3.3202    2.5970   -1.1972 H   0  0  0  0  0  0  0  0  0  0  0  0
    5.4011    2.4579   -2.0777 H   0  0  0  0  0  0  0  0  0  0  0  0
    6.1229   -0.5839   -0.4383 H   0  0  0  0  0  0  0  0  0  0  0  0
    4.4545   -1.6962    1.0313 H   0  0  0  0  0  0  0  0  0  0  0  0
  1  2  2  0
  2  3  1  0
  2  4  1  0
  4  5  1  0
  4  6  1  0
  6  7  1  0
  7  8  2  0
  8  9  1  0
  9 10  2  0
 10 11  1  0
 11 12  2  0
 10 13  1  0
 13 14  1  0
 14 15  2  0
 15 16  1  0
 16 17  2  0
 17 18  1  0
 17 19  1  0
 19 20  2  0
 12  7  1  0
 20 14  1  0
  3 21  1  0
  4 22  1  6
  5 23  1  0
  5 24  1  0
  6 25  1  0
  6 26  1  0
  8 27  1  0
  9 28  1  0
 11 29  1  0
 12 30  1  0
 15 31  1  0
 16 32  1  0
 18 33  1  0
 19 34  1  0
 20 35  1  0
M  END
>  <Name>  (74) 
UA54_ThY

>  <canvasUID>  (74) 
75

>  <MW>  (74) 
273.2839

>  <AlogP>  (74) 
2.1414

>  <HBA>  (74) 
2

>  <HBD>  (74) 
1

>  <RB>  (74) 
5

>  <PSA>  (74) 
92.78

>  <Estate>  (74) 
54.668

>  <Polar>  (74) 
35.475

>  <Chirality>  (74) 
[(3, 'S')]

$$$$

     RDKit          3D

 35 36  0  0  0  0  0  0  0  0999 V2000
   -6.7566    0.5064    0.3814 O   0  0  0  0  0  0  0  0  0  0  0  0
   -5.6901    0.7909   -0.1434 C   0  0  0  0  0  0  0  0  0  0  0  0
   -5.6628    1.5033   -1.2871 O   0  0  0  0  0  0  0  0  0  0  0  0
   -4.2961    0.4323    0.3799 C   0  0  1  0  0  0  0  0  0  0  0  0
   -4.4074   -0.0707    1.7757 N   0  0  0  0  0  0  0  0  0  0  0  0
   -3.6567   -0.6140   -0.5485 C   0  0  0  0  0  0  0  0  0  0  0  0
   -2.1476   -0.6448   -0.4600 C   0  0  0  0  0  0  0  0  0  0  0  0
   -1.3682    0.0353   -1.4049 C   0  0  0  0  0  0  0  0  0  0  0  0
    0.0267    0.0141   -1.3173 C   0  0  0  0  0  0  0  0  0  0  0  0
    0.6682   -0.6729   -0.2790 C   0  0  0  0  0  0  0  0  0  0  0  0
   -0.1119   -1.3557    0.6580 C   0  0  0  0  0  0  0  0  0  0  0  0
   -1.5071   -1.3385    0.5740 C   0  0  0  0  0  0  0  0  0  0  0  0
    2.0707   -0.7364   -0.1830 N   0  0  0  0  0  0  0  0  0  0  0  0
    2.5573    0.4084   -0.0491 N   0  0  0  0  0  0  0  0  0  0  0  0
    3.9582    0.3417    0.0624 C   0  0  0  0  0  0  0  0  0  0  0  0
    4.5754    0.8239    1.2216 C   0  0  0  0  0  0  0  0  0  0  0  0
    5.9661    0.8000    1.3507 C   0  0  0  0  0  0  0  0  0  0  0  0
    6.7529    0.3003    0.3139 C   0  0  0  0  0  0  0  0  0  0  0  0
    6.1516   -0.1717   -0.8519 C   0  0  0  0  0  0  0  0  0  0  0  0
    4.7607   -0.1463   -0.9779 C   0  0  0  0  0  0  0  0  0  0  0  0
   -6.6076    1.6752   -1.4864 H   0  0  0  0  0  0  0  0  0  0  0  0
   -3.7075    1.3571    0.4061 H   0  0  0  0  0  0  0  0  0  0  0  0
   -5.1000   -0.8237    1.7855 H   0  0  0  0  0  0  0  0  0  0  0  0
   -4.8313    0.6647    2.3445 H   0  0  0  0  0  0  0  0  0  0  0  0
   -3.9381   -0.4258   -1.5932 H   0  0  0  0  0  0  0  0  0  0  0  0
   -4.0524   -1.6166   -0.3346 H   0  0  0  0  0  0  0  0  0  0  0  0
   -1.8382    0.5852   -2.2172 H   0  0  0  0  0  0  0  0  0  0  0  0
    0.6211    0.5384   -2.0609 H   0  0  0  0  0  0  0  0  0  0  0  0
    0.3722   -1.8993    1.4650 H   0  0  0  0  0  0  0  0  0  0  0  0
   -2.0916   -1.8633    1.3271 H   0  0  0  0  0  0  0  0  0  0  0  0
    3.9638    1.2171    2.0294 H   0  0  0  0  0  0  0  0  0  0  0  0
    6.4331    1.1721    2.2589 H   0  0  0  0  0  0  0  0  0  0  0  0
    7.8353    0.2811    0.4135 H   0  0  0  0  0  0  0  0  0  0  0  0
    6.7629   -0.5581   -1.6631 H   0  0  0  0  0  0  0  0  0  0  0  0
    4.2947   -0.5096   -1.8900 H   0  0  0  0  0  0  0  0  0  0  0  0
  1  2  2  0
  2  3  1  0
  2  4  1  0
  4  5  1  0
  4  6  1  0
  6  7  1  0
  7  8  2  0
  8  9  1  0
  9 10  2  0
 10 11  1  0
 11 12  2  0
 10 13  1  0
 13 14  2  0
 14 15  1  0
 15 16  2  0
 16 17  1  0
 17 18  2  0
 18 19  1  0
 19 20  2  0
 12  7  1  0
 20 15  1  0
  3 21  1  0
  4 22  1  1
  5 23  1  0
  5 24  1  0
  6 25  1  0
  6 26  1  0
  8 27  1  0
  9 28  1  0
 11 29  1  0
 12 30  1  0
 16 31  1  0
 17 32  1  0
 18 33  1  0
 19 34  1  0
 20 35  1  0
M  END
>  <Name>  (75) 
UA55_AzoF

>  <canvasUID>  (75) 
76

>  <MW>  (75) 
269.2985

>  <AlogP>  (75) 
3.218

>  <HBA>  (75) 
2

>  <HBD>  (75) 
0

>  <RB>  (75) 
5

>  <PSA>  (75) 
88.04

>  <Estate>  (75) 
51.501

>  <Polar>  (75) 
36.261

>  <Chirality>  (75) 
[(3, 'S')]

$$$$

     RDKit          3D

 35 34  0  0  0  0  0  0  0  0999 V2000
   -5.2978    1.1881   -0.3318 O   0  0  0  0  0  0  0  0  0  0  0  0
   -5.2339   -0.2382   -0.4499 C   0  0  0  0  0  0  0  0  0  0  0  0
   -4.1191   -0.8086    0.4388 C   0  0  2  0  0  0  0  0  0  0  0  0
   -4.0138   -0.0188    1.7052 N   0  0  0  0  0  0  0  0  0  0  0  0
   -2.7818   -0.7820   -0.3221 C   0  0  0  0  0  0  0  0  0  0  0  0
   -2.3690   -1.7549   -0.9470 O   0  0  0  0  0  0  0  0  0  0  0  0
   -2.1199    0.4231   -0.2541 N   0  0  0  0  0  0  0  0  0  0  0  0
   -0.8360    0.6532   -0.8758 C   0  0  0  0  0  0  0  0  0  0  0  0
    0.3088    0.1584    0.0050 C   0  0  0  0  0  0  0  0  0  0  0  0
    1.6680    0.4584   -0.6292 C   0  0  0  0  0  0  0  0  0  0  0  0
    2.8151   -0.0624    0.2438 C   0  0  0  0  0  0  0  0  0  0  0  0
    4.2025    0.2981   -0.3051 C   0  0  2  0  0  0  0  0  0  0  0  0
    4.4088   -0.2998   -1.6441 N   0  0  0  0  0  0  0  0  0  0  0  0
    5.3001   -0.1831    0.6533 C   0  0  0  0  0  0  0  0  0  0  0  0
    6.1872   -0.9837    0.3965 O   0  0  0  0  0  0  0  0  0  0  0  0
    5.2412    0.3984    1.8676 O   0  0  0  0  0  0  0  0  0  0  0  0
   -4.9794    1.3802    0.5739 H   0  0  0  0  0  0  0  0  0  0  0  0
   -6.2049   -0.6256   -0.1244 H   0  0  0  0  0  0  0  0  0  0  0  0
   -5.0946   -0.4892   -1.5058 H   0  0  0  0  0  0  0  0  0  0  0  0
   -4.3251   -1.8567    0.6847 H   0  0  0  0  0  0  0  0  0  0  0  0
   -4.8489   -0.2131    2.2627 H   0  0  0  0  0  0  0  0  0  0  0  0
   -3.2403   -0.4160    2.2458 H   0  0  0  0  0  0  0  0  0  0  0  0
   -2.5222    1.1261    0.3582 H   0  0  0  0  0  0  0  0  0  0  0  0
   -0.7520    1.7311   -1.0487 H   0  0  0  0  0  0  0  0  0  0  0  0
   -0.8166    0.1464   -1.8470 H   0  0  0  0  0  0  0  0  0  0  0  0
    0.2461    0.6362    0.9908 H   0  0  0  0  0  0  0  0  0  0  0  0
    0.2083   -0.9210    0.1730 H   0  0  0  0  0  0  0  0  0  0  0  0
    1.7114   -0.0032   -1.6225 H   0  0  0  0  0  0  0  0  0  0  0  0
    1.7755    1.5410   -0.7683 H   0  0  0  0  0  0  0  0  0  0  0  0
    2.7281   -1.1517    0.3546 H   0  0  0  0  0  0  0  0  0  0  0  0
    2.7062    0.3533    1.2538 H   0  0  0  0  0  0  0  0  0  0  0  0
    4.3065    1.3846   -0.4044 H   0  0  0  0  0  0  0  0  0  0  0  0
    5.3745   -0.1186   -1.9277 H   0  0  0  0  0  0  0  0  0  0  0  0
    4.3652   -1.3172   -1.5515 H   0  0  0  0  0  0  0  0  0  0  0  0
    6.0019    0.0137    2.3518 H   0  0  0  0  0  0  0  0  0  0  0  0
  1  2  1  0
  2  3  1  0
  3  4  1  0
  3  5  1  0
  5  6  2  0
  5  7  1  0
  7  8  1  0
  8  9  1  0
  9 10  1  0
 10 11  1  0
 11 12  1  0
 12 13  1  0
 12 14  1  0
 14 15  2  0
 14 16  1  0
  1 17  1  0
  2 18  1  0
  2 19  1  0
  3 20  1  1
  4 21  1  0
  4 22  1  0
  7 23  1  0
  8 24  1  0
  8 25  1  0
  9 26  1  0
  9 27  1  0
 10 28  1  0
 10 29  1  0
 11 30  1  0
 11 31  1  0
 12 32  1  6
 13 33  1  0
 13 34  1  0
 16 35  1  0
M  END
>  <Name>  (76) 
UA56_SerK

>  <canvasUID>  (76) 
77

>  <MW>  (76) 
233.2649

>  <AlogP>  (76) 
-2.1307

>  <HBA>  (76) 
2

>  <HBD>  (76) 
2

>  <RB>  (76) 
8

>  <PSA>  (76) 
138.67

>  <Estate>  (76) 
51

>  <Polar>  (76) 
22.788

>  <Chirality>  (76) 
[(2, 'S'), (11, 'S')]

$$$$

     RDKit          3D

 38 37  0  0  0  0  0  0  0  0999 V2000
   -3.7590    0.8232    1.5696 C   0  0  0  0  0  0  0  0  0  0  0  0
   -4.1174    0.9194    0.0900 C   0  0  1  0  0  0  0  0  0  0  0  0
   -3.2973    1.9298   -0.5199 O   0  0  0  0  0  0  0  0  0  0  0  0
   -3.9870   -0.4097   -0.6896 C   0  0  2  0  0  0  0  0  0  0  0  0
   -4.9858   -1.4145   -0.2454 N   0  0  0  0  0  0  0  0  0  0  0  0
   -2.5656   -1.0150   -0.5837 C   0  0  0  0  0  0  0  0  0  0  0  0
   -2.3621   -2.1482   -0.1498 O   0  0  0  0  0  0  0  0  0  0  0  0
   -1.5645   -0.1894   -1.0457 N   0  0  0  0  0  0  0  0  0  0  0  0
   -0.1643   -0.5370   -0.9366 C   0  0  0  0  0  0  0  0  0  0  0  0
    0.3860   -0.2082    0.4505 C   0  0  0  0  0  0  0  0  0  0  0  0
    1.8407   -0.6434    0.6502 C   0  0  0  0  0  0  0  0  0  0  0  0
    2.8311    0.1226   -0.2351 C   0  0  0  0  0  0  0  0  0  0  0  0
    4.2925   -0.2837    0.0071 C   0  0  2  0  0  0  0  0  0  0  0  0
    4.7084    0.0472    1.3906 N   0  0  0  0  0  0  0  0  0  0  0  0
    5.2143    0.4004   -1.0165 C   0  0  0  0  0  0  0  0  0  0  0  0
    4.9557    0.6528   -2.1822 O   0  0  0  0  0  0  0  0  0  0  0  0
    6.4390    0.6930   -0.5194 O   0  0  0  0  0  0  0  0  0  0  0  0
   -3.9019    1.7947    2.0557 H   0  0  0  0  0  0  0  0  0  0  0  0
   -2.7045    0.5637    1.7097 H   0  0  0  0  0  0  0  0  0  0  0  0
   -4.3769    0.0873    2.0916 H   0  0  0  0  0  0  0  0  0  0  0  0
   -5.1536    1.2695    0.0009 H   0  0  0  0  0  0  0  0  0  0  0  0
   -3.5418    2.7759   -0.1011 H   0  0  0  0  0  0  0  0  0  0  0  0
   -4.1612   -0.2136   -1.7553 H   0  0  0  0  0  0  0  0  0  0  0  0
   -4.6709   -1.7741    0.6609 H   0  0  0  0  0  0  0  0  0  0  0  0
   -4.8744   -2.2308   -0.8537 H   0  0  0  0  0  0  0  0  0  0  0  0
   -1.8156    0.7913   -1.1751 H   0  0  0  0  0  0  0  0  0  0  0  0
    0.3573    0.0320   -1.7115 H   0  0  0  0  0  0  0  0  0  0  0  0
   -0.0458   -1.6045   -1.1520 H   0  0  0  0  0  0  0  0  0  0  0  0
    0.2904    0.8682    0.6405 H   0  0  0  0  0  0  0  0  0  0  0  0
   -0.2275   -0.7074    1.2113 H   0  0  0  0  0  0  0  0  0  0  0  0
    1.9310   -1.7195    0.4589 H   0  0  0  0  0  0  0  0  0  0  0  0
    2.0930   -0.4875    1.7057 H   0  0  0  0  0  0  0  0  0  0  0  0
    2.5874   -0.0593   -1.2885 H   0  0  0  0  0  0  0  0  0  0  0  0
    2.7118    1.2025   -0.0759 H   0  0  0  0  0  0  0  0  0  0  0  0
    4.4107   -1.3639   -0.1364 H   0  0  0  0  0  0  0  0  0  0  0  0
    5.7206   -0.1032    1.4422 H   0  0  0  0  0  0  0  0  0  0  0  0
    4.5960    1.0510    1.5346 H   0  0  0  0  0  0  0  0  0  0  0  0
    6.9110    1.0884   -1.2826 H   0  0  0  0  0  0  0  0  0  0  0  0
  1  2  1  0
  2  3  1  0
  2  4  1  0
  4  5  1  0
  4  6  1  0
  6  7  2  0
  6  8  1  0
  8  9  1  0
  9 10  1  0
 10 11  1  0
 11 12  1  0
 12 13  1  0
 13 14  1  0
 13 15  1  0
 15 16  2  0
 15 17  1  0
  1 18  1  0
  1 19  1  0
  1 20  1  0
  2 21  1  1
  3 22  1  0
  4 23  1  6
  5 24  1  0
  5 25  1  0
  8 26  1  0
  9 27  1  0
  9 28  1  0
 10 29  1  0
 10 30  1  0
 11 31  1  0
 11 32  1  0
 12 33  1  0
 12 34  1  0
 13 35  1  1
 14 36  1  0
 14 37  1  0
 17 38  1  0
M  END
>  <Name>  (77) 
UA57_ThrK

>  <canvasUID>  (77) 
79

>  <MW>  (77) 
247.2914

>  <AlogP>  (77) 
-1.7532

>  <HBA>  (77) 
2

>  <HBD>  (77) 
2

>  <RB>  (77) 
8

>  <PSA>  (77) 
138.67

>  <Estate>  (77) 
52.833

>  <Polar>  (77) 
24.623

>  <Chirality>  (77) 
[(1, 'R'), (3, 'S'), (12, 'S')]

$$$$

     RDKit          3D

 27 27  0  0  0  0  0  0  0  0999 V2000
   -2.8580    1.4655   -1.6325 O   0  0  0  0  0  0  0  0  0  0  0  0
   -2.4755    1.2769   -0.4861 C   0  0  0  0  0  0  0  0  0  0  0  0
   -1.8338    2.2473    0.1939 O   0  0  0  0  0  0  0  0  0  0  0  0
   -2.6439   -0.0145    0.3167 C   0  0  1  0  0  0  0  0  0  0  0  0
   -4.0843   -0.3641    0.3619 N   0  0  0  0  0  0  0  0  0  0  0  0
   -1.8227   -1.1391   -0.3362 C   0  0  0  0  0  0  0  0  0  0  0  0
   -0.3308   -0.9002   -0.2802 C   0  0  0  0  0  0  0  0  0  0  0  0
    0.3763   -1.0943    0.9148 C   0  0  0  0  0  0  0  0  0  0  0  0
    1.7500   -0.8518    0.9721 C   0  0  0  0  0  0  0  0  0  0  0  0
    2.4183   -0.3996   -0.1635 C   0  0  0  0  0  0  0  0  0  0  0  0
    1.7339   -0.2240   -1.3636 C   0  0  0  0  0  0  0  0  0  0  0  0
    0.3608   -0.4656   -1.4198 C   0  0  0  0  0  0  0  0  0  0  0  0
    3.7676   -0.1738   -0.1561 O   0  0  0  0  0  0  0  0  0  0  0  0
    4.3415    1.0598    0.7499 S   0  0  0  0  0  6  0  0  0  0  0  0
    3.7662    2.3082    0.2907 O   0  0  0  0  0  0  0  0  0  0  0  0
    4.3330    0.6772    2.1482 O   0  0  0  0  0  0  0  0  0  0  0  0
    5.8851    1.1582    0.3656 F   0  0  0  0  0  0  0  0  0  0  0  0
   -1.8075    3.0033   -0.4279 H   0  0  0  0  0  0  0  0  0  0  0  0
   -2.3120    0.1600    1.3465 H   0  0  0  0  0  0  0  0  0  0  0  0
   -4.1989   -1.3014    0.7426 H   0  0  0  0  0  0  0  0  0  0  0  0
   -4.4416   -0.3941   -0.5958 H   0  0  0  0  0  0  0  0  0  0  0  0
   -2.1303   -1.2799   -1.3814 H   0  0  0  0  0  0  0  0  0  0  0  0
   -2.0304   -2.0944    0.1646 H   0  0  0  0  0  0  0  0  0  0  0  0
   -0.1377   -1.4378    1.8105 H   0  0  0  0  0  0  0  0  0  0  0  0
    2.2816   -1.0242    1.9048 H   0  0  0  0  0  0  0  0  0  0  0  0
    2.2593    0.1104   -2.2543 H   0  0  0  0  0  0  0  0  0  0  0  0
   -0.1664   -0.3080   -2.3593 H   0  0  0  0  0  0  0  0  0  0  0  0
  1  2  2  0
  2  3  1  0
  2  4  1  0
  4  5  1  0
  4  6  1  0
  6  7  1  0
  7  8  2  0
  8  9  1  0
  9 10  2  0
 10 11  1  0
 11 12  2  0
 10 13  1  0
 13 14  1  0
 14 15  2  0
 14 16  2  0
 14 17  1  0
 12  7  1  0
  3 18  1  0
  4 19  1  1
  5 20  1  0
  5 21  1  0
  6 22  1  0
  6 23  1  0
  8 24  1  0
  9 25  1  0
 11 26  1  0
 12 27  1  0
M  END
>  <Name>  (78) 
UA58_FSY

>  <canvasUID>  (78) 
81

>  <MW>  (78) 
263.2428

>  <AlogP>  (78) 
0.5035

>  <HBA>  (78) 
1

>  <HBD>  (78) 
0

>  <RB>  (78) 
5

>  <PSA>  (78) 
115.07

>  <Estate>  (78) 
60.251

>  <Polar>  (78) 
25.661

>  <Chirality>  (78) 
[(3, 'S')]

$$$$

     RDKit          3D

 24 24  0  0  0  0  0  0  0  0999 V2000
   -3.8515   -1.1689   -1.0934 O   0  0  0  0  0  0  0  0  0  0  0  0
   -3.3530   -0.3266   -0.3633 C   0  0  0  0  0  0  0  0  0  0  0  0
   -4.0417    0.1488    0.6995 O   0  0  0  0  0  0  0  0  0  0  0  0
   -1.9283    0.2212   -0.4651 C   0  0  1  0  0  0  0  0  0  0  0  0
   -1.8773    1.6203    0.0208 N   0  0  0  0  0  0  0  0  0  0  0  0
   -1.0038   -0.7286    0.3161 C   0  0  0  0  0  0  0  0  0  0  0  0
    0.4687   -0.4310    0.1419 C   0  0  0  0  0  0  0  0  0  0  0  0
    1.1139   -0.7128   -1.0709 C   0  0  0  0  0  0  0  0  0  0  0  0
    2.4733   -0.4316   -1.2277 C   0  0  0  0  0  0  0  0  0  0  0  0
    3.2356   -0.7902   -2.7341 Cl  0  0  0  0  0  0  0  0  0  0  0  0
    3.2074    0.1324   -0.1811 C   0  0  0  0  0  0  0  0  0  0  0  0
    4.5418    0.4114   -0.3322 O   0  0  0  0  0  0  0  0  0  0  0  0
    2.5724    0.4131    1.0297 C   0  0  0  0  0  0  0  0  0  0  0  0
    3.4287    1.1096    2.3566 Cl  0  0  0  0  0  0  0  0  0  0  0  0
    1.2111    0.1325    1.1908 C   0  0  0  0  0  0  0  0  0  0  0  0
   -4.9236   -0.2705    0.6139 H   0  0  0  0  0  0  0  0  0  0  0  0
   -1.6652    0.2394   -1.5288 H   0  0  0  0  0  0  0  0  0  0  0  0
   -0.9100    1.8999    0.1736 H   0  0  0  0  0  0  0  0  0  0  0  0
   -2.3453    1.6595    0.9293 H   0  0  0  0  0  0  0  0  0  0  0  0
   -1.1792   -1.7663    0.0000 H   0  0  0  0  0  0  0  0  0  0  0  0
   -1.2632   -0.7097    1.3835 H   0  0  0  0  0  0  0  0  0  0  0  0
    0.5578   -1.1548   -1.8958 H   0  0  0  0  0  0  0  0  0  0  0  0
    4.8010    0.1480   -1.2346 H   0  0  0  0  0  0  0  0  0  0  0  0
    0.7305    0.3550    2.1419 H   0  0  0  0  0  0  0  0  0  0  0  0
  1  2  2  0
  2  3  1  0
  2  4  1  0
  4  5  1  0
  4  6  1  0
  6  7  1  0
  7  8  2  0
  8  9  1  0
  9 10  1  0
  9 11  2  0
 11 12  1  0
 11 13  1  0
 13 14  1  0
 13 15  2  0
 15  7  1  0
  3 16  1  0
  4 17  1  6
  5 18  1  0
  5 19  1  0
  6 20  1  0
  6 21  1  0
  8 22  1  0
 12 23  1  0
 15 24  1  0
M  END
>  <Name>  (79) 
UA59_Cl2Y

>  <canvasUID>  (79) 
82

>  <MW>  (79) 
250.0787

>  <AlogP>  (79) 
1.91

>  <HBA>  (79) 
1

>  <HBD>  (79) 
1

>  <RB>  (79) 
3

>  <PSA>  (79) 
83.55

>  <Estate>  (79) 
47.39

>  <Polar>  (79) 
25.854

>  <Chirality>  (79) 
[(3, 'S')]

$$$$

     RDKit          3D

 39 39  0  0  0  0  0  0  0  0999 V2000
    6.1657    1.1315    0.1268 O   0  0  0  0  0  0  0  0  0  0  0  0
    5.4012    0.3623   -0.4362 C   0  0  0  0  0  0  0  0  0  0  0  0
    4.8168    0.7083   -1.5998 O   0  0  0  0  0  0  0  0  0  0  0  0
    5.0082   -1.0378    0.0424 C   0  0  1  0  0  0  0  0  0  0  0  0
    6.1521   -1.6390    0.7718 N   0  0  0  0  0  0  0  0  0  0  0  0
    3.7946   -1.0094    0.9817 C   0  0  0  0  0  0  0  0  0  0  0  0
    2.4831   -0.5845    0.3053 C   0  0  0  0  0  0  0  0  0  0  0  0
    2.1569    0.8992    0.5142 C   0  0  0  0  0  0  0  0  0  0  0  0
    0.8937    1.3259   -0.2298 C   0  0  0  0  0  0  0  0  0  0  0  0
   -0.2926    0.6934    0.2966 N   0  0  0  0  0  0  0  0  0  0  0  0
   -1.4461    0.6165   -0.4227 C   0  0  0  0  0  0  0  0  0  0  0  0
   -1.5756    0.9219   -1.5976 O   0  0  0  0  0  0  0  0  0  0  0  0
   -2.4379    0.1624    0.3821 O   0  0  0  0  0  0  0  0  0  0  0  0
   -3.7046    0.0181   -0.2759 C   0  0  0  0  0  0  0  0  0  0  0  0
   -4.7281   -0.4386    0.7558 C   0  0  0  0  0  0  0  0  0  0  0  0
   -6.0902   -0.6154    0.1569 C   0  0  0  0  0  0  0  0  0  0  0  0
   -6.8940    0.6074   -0.1446 C   0  0  0  0  0  0  0  0  0  0  0  0
   -6.3323   -1.8112   -0.6560 N   0  0  0  0  0  0  0  0  0  0  0  0
   -6.8223   -1.8435    0.4852 N   0  0  0  0  0  0  0  0  0  0  0  0
    5.1763    1.5993   -1.7951 H   0  0  0  0  0  0  0  0  0  0  0  0
    4.8096   -1.6688   -0.8310 H   0  0  0  0  0  0  0  0  0  0  0  0
    6.9586   -1.6670    0.1462 H   0  0  0  0  0  0  0  0  0  0  0  0
    6.4270   -0.9914    1.5155 H   0  0  0  0  0  0  0  0  0  0  0  0
    3.9927   -0.3722    1.8533 H   0  0  0  0  0  0  0  0  0  0  0  0
    3.6451   -2.0265    1.3698 H   0  0  0  0  0  0  0  0  0  0  0  0
    1.6706   -1.1778    0.7437 H   0  0  0  0  0  0  0  0  0  0  0  0
    2.5034   -0.8286   -0.7632 H   0  0  0  0  0  0  0  0  0  0  0  0
    2.9868    1.5218    0.1671 H   0  0  0  0  0  0  0  0  0  0  0  0
    2.0379    1.0974    1.5867 H   0  0  0  0  0  0  0  0  0  0  0  0
    0.7508    2.4072   -0.1249 H   0  0  0  0  0  0  0  0  0  0  0  0
    0.9803    1.1086   -1.3005 H   0  0  0  0  0  0  0  0  0  0  0  0
   -0.4048    0.5711    1.2934 H   0  0  0  0  0  0  0  0  0  0  0  0
   -3.6164   -0.7240   -1.0783 H   0  0  0  0  0  0  0  0  0  0  0  0
   -4.0042    0.9803   -0.7076 H   0  0  0  0  0  0  0  0  0  0  0  0
   -4.7722    0.2867    1.5780 H   0  0  0  0  0  0  0  0  0  0  0  0
   -4.3794   -1.3726    1.2161 H   0  0  0  0  0  0  0  0  0  0  0  0
   -6.4177    1.1992   -0.9322 H   0  0  0  0  0  0  0  0  0  0  0  0
   -6.9879    1.2339    0.7481 H   0  0  0  0  0  0  0  0  0  0  0  0
   -7.9051    0.3557   -0.4831 H   0  0  0  0  0  0  0  0  0  0  0  0
  1  2  2  0
  2  3  1  0
  2  4  1  0
  4  5  1  0
  4  6  1  0
  6  7  1  0
  7  8  1  0
  8  9  1  0
  9 10  1  0
 10 11  1  0
 11 12  2  0
 11 13  1  0
 13 14  1  0
 14 15  1  0
 15 16  1  0
 16 17  1  0
 16 18  1  0
 18 19  2  0
 19 16  1  0
  3 20  1  0
  4 21  1  6
  5 22  1  0
  5 23  1  0
  6 24  1  0
  6 25  1  0
  7 26  1  0
  7 27  1  0
  8 28  1  0
  8 29  1  0
  9 30  1  0
  9 31  1  0
 10 32  1  0
 14 33  1  0
 14 34  1  0
 15 35  1  0
 15 36  1  0
 17 37  1  0
 17 38  1  0
 17 39  1  0
M  END
>  <Name>  (80) 
UA60_AbK

>  <canvasUID>  (80) 
83

>  <MW>  (80) 
272.3009

>  <AlogP>  (80) 
0.3088

>  <HBA>  (80) 
4

>  <HBD>  (80) 
1

>  <RB>  (80) 
10

>  <PSA>  (80) 
126.37

>  <Estate>  (80) 
53.917

>  <Polar>  (80) 
26.393

>  <Chirality>  (80) 
[(3, 'S')]

$$$$

     RDKit          3D

 17 17  0  0  0  0  0  0  0  0999 V2000
    1.9721   -1.1875   -1.2486 O   0  0  0  0  0  0  0  0  0  0  0  0
    1.4532   -0.1672   -0.8242 C   0  0  0  0  0  0  0  0  0  0  0  0
    1.3575    0.9255   -1.6164 O   0  0  0  0  0  0  0  0  0  0  0  0
    0.9096    0.0536    0.5932 C   0  0  2  0  0  0  0  0  0  0  0  0
   -0.0256   -1.0621    1.0243 C   0  0  0  0  0  0  0  0  0  0  0  0
   -1.3414   -0.6546    0.3988 C   0  0  0  0  0  0  0  0  0  0  0  0
   -1.3644   -1.1020   -0.8883 F   0  0  0  0  0  0  0  0  0  0  0  0
   -1.3095    0.8684    0.3846 C   0  0  0  0  0  0  0  0  0  0  0  0
    0.0726    1.2799    0.6911 N   0  0  0  0  0  0  0  0  0  0  0  0
    1.7289    0.6197   -2.4710 H   0  0  0  0  0  0  0  0  0  0  0  0
    1.7736    0.1462    1.2590 H   0  0  0  0  0  0  0  0  0  0  0  0
    0.2973   -2.0499    0.6827 H   0  0  0  0  0  0  0  0  0  0  0  0
   -0.1172   -1.0728    2.1170 H   0  0  0  0  0  0  0  0  0  0  0  0
   -2.2104   -1.0670    0.9181 H   0  0  0  0  0  0  0  0  0  0  0  0
   -1.6282    1.2615   -0.5863 H   0  0  0  0  0  0  0  0  0  0  0  0
   -1.9660    1.2764    1.1594 H   0  0  0  0  0  0  0  0  0  0  0  0
    0.3980    1.9319   -0.0313 H   0  0  0  0  0  0  0  0  0  0  0  0
  1  2  2  0
  2  3  1  0
  2  4  1  0
  4  5  1  0
  5  6  1  0
  6  7  1  0
  6  8  1  0
  8  9  1  0
  9  4  1  0
  3 10  1  0
  4 11  1  1
  5 12  1  0
  5 13  1  0
  6 14  1  0
  8 15  1  0
  8 16  1  0
  9 17  1  0
M  END
>  <Name>  (81) 
UA61_TCFP

>  <canvasUID>  (81) 
84

>  <MW>  (81) 
133.1209

>  <AlogP>  (81) 
-0.314

>  <HBA>  (81) 
0

>  <HBD>  (81) 
0

>  <RB>  (81) 
1

>  <PSA>  (81) 
49.33

>  <Estate>  (81) 
31.833

>  <Polar>  (81) 
11.158

>  <Chirality>  (81) 
[(3, 'S')]

$$$$

     RDKit          3D

 20 20  0  0  0  0  0  0  0  0999 V2000
    2.8926    0.4932    0.8638 O   0  0  0  0  0  0  0  0  0  0  0  0
    2.3132   -0.2824    0.1179 C   0  0  0  0  0  0  0  0  0  0  0  0
    3.0107   -1.0048   -0.7841 O   0  0  0  0  0  0  0  0  0  0  0  0
    0.8038   -0.5188    0.0273 C   0  0  2  0  0  0  0  0  0  0  0  0
    0.2263    0.4178   -1.0394 C   0  0  0  0  0  0  0  0  0  0  0  0
   -1.2953    0.3367   -1.0929 C   0  0  0  0  0  0  0  0  0  0  0  0
   -1.8909    0.5446    0.2948 C   0  0  0  0  0  0  0  0  0  0  0  0
   -1.2645   -0.4098    1.3077 C   0  0  0  0  0  0  0  0  0  0  0  0
    0.1907   -0.2880    1.3556 N   0  0  0  0  0  0  0  0  0  0  0  0
    3.9421   -0.7576   -0.6044 H   0  0  0  0  0  0  0  0  0  0  0  0
    0.6430   -1.5693   -0.2454 H   0  0  0  0  0  0  0  0  0  0  0  0
    0.5264    1.4541   -0.8329 H   0  0  0  0  0  0  0  0  0  0  0  0
    0.6409    0.1685   -2.0237 H   0  0  0  0  0  0  0  0  0  0  0  0
   -1.5961   -0.6454   -1.4780 H   0  0  0  0  0  0  0  0  0  0  0  0
   -1.6873    1.0886   -1.7865 H   0  0  0  0  0  0  0  0  0  0  0  0
   -1.7267    1.5818    0.6132 H   0  0  0  0  0  0  0  0  0  0  0  0
   -2.9749    0.3882    0.2591 H   0  0  0  0  0  0  0  0  0  0  0  0
   -1.5390   -1.4450    1.0714 H   0  0  0  0  0  0  0  0  0  0  0  0
   -1.6695   -0.2002    2.3038 H   0  0  0  0  0  0  0  0  0  0  0  0
    0.4543    0.6480    1.6728 H   0  0  0  0  0  0  0  0  0  0  0  0
  1  2  2  0
  2  3  1  0
  2  4  1  0
  4  5  1  0
  5  6  1  0
  6  7  1  0
  7  8  1  0
  8  9  1  0
  9  4  1  0
  3 10  1  0
  4 11  1  6
  5 12  1  0
  5 13  1  0
  6 14  1  0
  6 15  1  0
  7 16  1  0
  7 17  1  0
  8 18  1  0
  8 19  1  0
  9 20  1  0
M  END
>  <Name>  (82) 
UA62_PiP

>  <canvasUID>  (82) 
85

>  <MW>  (82) 
129.157

>  <AlogP>  (82) 
0.2929

>  <HBA>  (82) 
0

>  <HBD>  (82) 
0

>  <RB>  (82) 
1

>  <PSA>  (82) 
49.33

>  <Estate>  (82) 
25.5

>  <Polar>  (82) 
13.084

>  <Chirality>  (82) 
[(3, 'S')]

$$$$

     RDKit          3D

 20 20  0  0  0  0  0  0  0  0999 V2000
   -1.9915    1.2969   -1.5732 O   0  0  0  0  0  0  0  0  0  0  0  0
   -1.6176    0.9359   -0.4672 C   0  0  0  0  0  0  0  0  0  0  0  0
   -2.3057    1.3410    0.6236 O   0  0  0  0  0  0  0  0  0  0  0  0
   -0.4691   -0.0364   -0.1357 C   0  0  2  0  0  0  0  0  0  0  0  0
   -1.0832   -1.4216    0.1015 C   0  0  0  0  0  0  0  0  0  0  0  0
    0.3775    0.4307    1.0615 C   0  0  0  0  0  0  0  0  0  0  0  0
    1.8006    0.5527    0.5295 C   0  0  0  0  0  0  0  0  0  0  0  0
    1.8093   -0.3260   -0.7010 C   0  0  0  0  0  0  0  0  0  0  0  0
    0.4916   -0.0790   -1.2656 N   0  0  0  0  0  0  0  0  0  0  0  0
   -2.9972    1.9234    0.2442 H   0  0  0  0  0  0  0  0  0  0  0  0
   -1.6597   -1.7551   -0.7696 H   0  0  0  0  0  0  0  0  0  0  0  0
   -0.3176   -2.1779    0.3071 H   0  0  0  0  0  0  0  0  0  0  0  0
   -1.7698   -1.4048    0.9559 H   0  0  0  0  0  0  0  0  0  0  0  0
    0.0619    1.3922    1.4800 H   0  0  0  0  0  0  0  0  0  0  0  0
    0.3568   -0.3060    1.8736 H   0  0  0  0  0  0  0  0  0  0  0  0
    2.5455    0.2447    1.2692 H   0  0  0  0  0  0  0  0  0  0  0  0
    2.0058    1.5952    0.2556 H   0  0  0  0  0  0  0  0  0  0  0  0
    2.6064   -0.0497   -1.3967 H   0  0  0  0  0  0  0  0  0  0  0  0
    1.9294   -1.3815   -0.4324 H   0  0  0  0  0  0  0  0  0  0  0  0
    0.2269   -0.7743   -1.9601 H   0  0  0  0  0  0  0  0  0  0  0  0
  1  2  2  0
  2  3  1  0
  2  4  1  0
  4  5  1  1
  4  6  1  0
  6  7  1  0
  7  8  1  0
  8  9  1  0
  9  4  1  0
  3 10  1  0
  5 11  1  0
  5 12  1  0
  5 13  1  0
  6 14  1  0
  6 15  1  0
  7 16  1  0
  7 17  1  0
  8 18  1  0
  8 19  1  0
  9 20  1  0
M  END
>  <Name>  (83) 
UA63_2MeP

>  <canvasUID>  (83) 
86

>  <MW>  (83) 
129.157

>  <AlogP>  (83) 
0.1484

>  <HBA>  (83) 
0

>  <HBD>  (83) 
0

>  <RB>  (83) 
1

>  <PSA>  (83) 
49.33

>  <Estate>  (83) 
25.917

>  <Polar>  (83) 
13.084

>  <Chirality>  (83) 
[(3, 'S')]

$$$$

     RDKit          3D

 39 39  0  0  0  0  0  0  0  0999 V2000
   -5.2833    1.8222    1.5629 O   0  0  0  0  0  0  0  0  0  0  0  0
   -5.1269    0.6124    1.4854 C   0  0  0  0  0  0  0  0  0  0  0  0
   -5.3143   -0.1701    2.5678 O   0  0  0  0  0  0  0  0  0  0  0  0
   -4.6864   -0.1724    0.2450 C   0  0  1  0  0  0  0  0  0  0  0  0
   -5.4056    0.3584   -0.9342 N   0  0  0  0  0  0  0  0  0  0  0  0
   -3.1696   -0.0539    0.0356 C   0  0  0  0  0  0  0  0  0  0  0  0
   -2.3630   -0.7494    1.1400 C   0  0  0  0  0  0  0  0  0  0  0  0
   -0.8489   -0.6398    0.9381 C   0  0  0  0  0  0  0  0  0  0  0  0
   -0.3331   -1.4655   -0.2399 C   0  0  0  0  0  0  0  0  0  0  0  0
    1.1058   -1.3918   -0.3471 N   0  0  0  0  0  0  0  0  0  0  0  0
    1.7466   -0.3166   -0.9309 C   0  0  0  0  0  0  0  0  0  0  0  0
    1.1607    0.5847   -1.5216 O   0  0  0  0  0  0  0  0  0  0  0  0
    3.2782   -0.4087   -0.8087 C   0  0  1  0  0  0  0  0  0  0  0  0
    3.9822    0.9459   -0.9232 C   0  0  2  0  0  0  0  0  0  0  0  0
    5.3800    0.7988   -1.5278 C   0  0  0  0  0  0  0  0  0  0  0  0
    4.0458    1.4055    0.5219 C   0  0  0  0  0  0  0  0  0  0  0  0
    4.0184    0.0884    1.2218 C   0  0  0  0  0  0  0  0  0  0  0  0
    3.6187   -0.9447    0.5495 N   0  0  0  0  0  0  0  0  0  0  0  0
   -5.6135    0.4595    3.2567 H   0  0  0  0  0  0  0  0  0  0  0  0
   -4.9789   -1.2216    0.3634 H   0  0  0  0  0  0  0  0  0  0  0  0
   -5.2834    1.3743   -0.9547 H   0  0  0  0  0  0  0  0  0  0  0  0
   -4.9774    0.0045   -1.7877 H   0  0  0  0  0  0  0  0  0  0  0  0
   -2.9106   -0.5003   -0.9316 H   0  0  0  0  0  0  0  0  0  0  0  0
   -2.8770    1.0032   -0.0108 H   0  0  0  0  0  0  0  0  0  0  0  0
   -2.6030   -0.2931    2.1073 H   0  0  0  0  0  0  0  0  0  0  0  0
   -2.6519   -1.8052    1.2054 H   0  0  0  0  0  0  0  0  0  0  0  0
   -0.5670    0.4133    0.8164 H   0  0  0  0  0  0  0  0  0  0  0  0
   -0.3516   -0.9848    1.8539 H   0  0  0  0  0  0  0  0  0  0  0  0
   -0.5914   -2.5215   -0.1108 H   0  0  0  0  0  0  0  0  0  0  0  0
   -0.7657   -1.1176   -1.1829 H   0  0  0  0  0  0  0  0  0  0  0  0
    1.6877   -1.9335    0.2891 H   0  0  0  0  0  0  0  0  0  0  0  0
    3.6247   -1.1120   -1.5750 H   0  0  0  0  0  0  0  0  0  0  0  0
    3.4277    1.6670   -1.5333 H   0  0  0  0  0  0  0  0  0  0  0  0
    5.3157    0.4335   -2.5582 H   0  0  0  0  0  0  0  0  0  0  0  0
    5.9999    0.0972   -0.9592 H   0  0  0  0  0  0  0  0  0  0  0  0
    5.8948    1.7652   -1.5461 H   0  0  0  0  0  0  0  0  0  0  0  0
    4.9497    1.9643    0.7751 H   0  0  0  0  0  0  0  0  0  0  0  0
    3.1635    1.9780    0.8236 H   0  0  0  0  0  0  0  0  0  0  0  0
    4.3021    0.0258    2.2829 H   0  0  0  0  0  0  0  0  0  0  0  0
  1  2  2  0
  2  3  1  0
  2  4  1  0
  4  5  1  0
  4  6  1  0
  6  7  1  0
  7  8  1  0
  8  9  1  0
  9 10  1  0
 10 11  1  0
 11 12  2  0
 11 13  1  0
 13 14  1  0
 14 15  1  0
 14 16  1  0
 16 17  1  0
 17 18  2  0
 18 13  1  0
  3 19  1  0
  4 20  1  1
  5 21  1  0
  5 22  1  0
  6 23  1  0
  6 24  1  0
  7 25  1  0
  7 26  1  0
  8 27  1  0
  8 28  1  0
  9 29  1  0
  9 30  1  0
 10 31  1  0
 13 32  1  6
 14 33  1  6
 15 34  1  0
 15 35  1  0
 15 36  1  0
 16 37  1  0
 16 38  1  0
 17 39  1  0
M  END
>  <Name>  (84) 
UA64_Pyl

>  <canvasUID>  (84) 
87

>  <MW>  (84) 
255.3134

>  <AlogP>  (84) 
-0.291

>  <HBA>  (84) 
2

>  <HBD>  (84) 
1

>  <RB>  (84) 
7

>  <PSA>  (84) 
104.78

>  <Estate>  (84) 
49.333

>  <Polar>  (84) 
26.465

>  <Chirality>  (84) 
[(3, 'S'), (12, 'R'), (13, 'R')]

$$$$

     RDKit          3D

 23 23  0  0  0  0  0  0  0  0999 V2000
   -1.6901   -2.1235   -0.1932 O   0  0  0  0  0  0  0  0  0  0  0  0
   -2.0249   -1.0786    0.3408 C   0  0  0  0  0  0  0  0  0  0  0  0
   -2.5912   -1.0969    1.5717 O   0  0  0  0  0  0  0  0  0  0  0  0
   -1.8574    0.3363   -0.2210 C   0  0  1  0  0  0  0  0  0  0  0  0
   -3.1199    1.0945   -0.0237 N   0  0  0  0  0  0  0  0  0  0  0  0
   -0.6762    1.0436    0.4636 C   0  0  0  0  0  0  0  0  0  0  0  0
    0.6677    0.4509    0.1080 C   0  0  0  0  0  0  0  0  0  0  0  0
    1.2500    0.7112   -1.1405 C   0  0  0  0  0  0  0  0  0  0  0  0
    2.4868    0.1555   -1.4758 C   0  0  0  0  0  0  0  0  0  0  0  0
    3.1473   -0.6651   -0.5632 C   0  0  0  0  0  0  0  0  0  0  0  0
    4.9874   -1.4934   -1.0609 I   0  0  0  0  0  0  0  0  0  0  0  0
    2.5802   -0.9333    0.6814 C   0  0  0  0  0  0  0  0  0  0  0  0
    1.3434   -0.3765    1.0154 C   0  0  0  0  0  0  0  0  0  0  0  0
   -2.6661   -2.0550    1.7661 H   0  0  0  0  0  0  0  0  0  0  0  0
   -1.6946    0.2492   -1.3010 H   0  0  0  0  0  0  0  0  0  0  0  0
   -3.3833    1.0126    0.9616 H   0  0  0  0  0  0  0  0  0  0  0  0
   -2.9590    2.0840   -0.2007 H   0  0  0  0  0  0  0  0  0  0  0  0
   -0.6571    2.1042    0.1774 H   0  0  0  0  0  0  0  0  0  0  0  0
   -0.8029    1.0352    1.5546 H   0  0  0  0  0  0  0  0  0  0  0  0
    0.7446    1.3486   -1.8632 H   0  0  0  0  0  0  0  0  0  0  0  0
    2.9188    0.3694   -2.4500 H   0  0  0  0  0  0  0  0  0  0  0  0
    3.0851   -1.5745    1.3992 H   0  0  0  0  0  0  0  0  0  0  0  0
    0.9116   -0.5985    1.9891 H   0  0  0  0  0  0  0  0  0  0  0  0
  1  2  2  0
  2  3  1  0
  2  4  1  0
  4  5  1  0
  4  6  1  0
  6  7  1  0
  7  8  2  0
  8  9  1  0
  9 10  2  0
 10 11  1  0
 10 12  1  0
 12 13  2  0
 13  7  1  0
  3 14  1  0
  4 15  1  6
  5 16  1  0
  5 17  1  0
  6 18  1  0
  6 19  1  0
  8 20  1  0
  9 21  1  0
 12 22  1  0
 13 23  1  0
M  END
>  <Name>  (85) 
UA65_iodoF

>  <canvasUID>  (85) 
88

>  <MW>  (85) 
291.0857

>  <AlogP>  (85) 
1.4268

>  <HBA>  (85) 
0

>  <HBD>  (85) 
0

>  <RB>  (85) 
3

>  <PSA>  (85) 
63.32

>  <Estate>  (85) 
35.954

>  <Polar>  (85) 
26.305

>  <Chirality>  (85) 
[(3, 'S')]

$$$$

     RDKit          3D

 34 33  0  0  0  0  0  0  0  0999 V2000
   -4.8698    1.7108    1.1464 O   0  0  0  0  0  0  0  0  0  0  0  0
   -4.7139    0.5312    0.8689 C   0  0  0  0  0  0  0  0  0  0  0  0
   -4.7021   -0.4018    1.8431 O   0  0  0  0  0  0  0  0  0  0  0  0
   -4.4743   -0.0601   -0.5249 C   0  0  1  0  0  0  0  0  0  0  0  0
   -4.9470    0.8740   -1.5659 N   0  0  0  0  0  0  0  0  0  0  0  0
   -2.9992   -0.4531   -0.7084 C   0  0  0  0  0  0  0  0  0  0  0  0
   -2.0135    0.7224   -0.6563 C   0  0  0  0  0  0  0  0  0  0  0  0
   -0.5646    0.3075   -0.9326 C   0  0  0  0  0  0  0  0  0  0  0  0
    0.0256   -0.6002    0.1455 C   0  0  0  0  0  0  0  0  0  0  0  0
    1.4187   -0.8835   -0.1080 N   0  0  0  0  0  0  0  0  0  0  0  0
    2.4258   -0.0523    0.2768 C   0  0  0  0  0  0  0  0  0  0  0  0
    2.2886    0.9791    0.9161 O   0  0  0  0  0  0  0  0  0  0  0  0
    3.6020   -0.5492   -0.1718 O   0  0  0  0  0  0  0  0  0  0  0  0
    4.7323    0.2482    0.1878 C   0  0  0  0  0  0  0  0  0  0  0  0
    5.9474   -0.4183   -0.3824 C   0  0  0  0  0  0  0  0  0  0  0  0
    7.0029   -0.8229    0.3366 C   0  0  0  0  0  0  0  0  0  0  0  0
   -4.8755    0.1147    2.6585 H   0  0  0  0  0  0  0  0  0  0  0  0
   -5.0963   -0.9593   -0.6062 H   0  0  0  0  0  0  0  0  0  0  0  0
   -4.4946    0.6695   -2.4541 H   0  0  0  0  0  0  0  0  0  0  0  0
   -4.6706    1.8238   -1.3047 H   0  0  0  0  0  0  0  0  0  0  0  0
   -2.7358   -1.1800    0.0690 H   0  0  0  0  0  0  0  0  0  0  0  0
   -2.8868   -0.9715   -1.6695 H   0  0  0  0  0  0  0  0  0  0  0  0
   -2.2936    1.4712   -1.4062 H   0  0  0  0  0  0  0  0  0  0  0  0
   -2.0669    1.2165    0.3208 H   0  0  0  0  0  0  0  0  0  0  0  0
   -0.4992   -0.1874   -1.9097 H   0  0  0  0  0  0  0  0  0  0  0  0
    0.0428    1.2182   -1.0108 H   0  0  0  0  0  0  0  0  0  0  0  0
   -0.4895   -1.5647    0.1735 H   0  0  0  0  0  0  0  0  0  0  0  0
   -0.0668   -0.1305    1.1311 H   0  0  0  0  0  0  0  0  0  0  0  0
    1.6890   -1.6658   -0.6876 H   0  0  0  0  0  0  0  0  0  0  0  0
    4.8004    0.3288    1.2792 H   0  0  0  0  0  0  0  0  0  0  0  0
    4.6364    1.2487   -0.2497 H   0  0  0  0  0  0  0  0  0  0  0  0
    5.9513   -0.5709   -1.4590 H   0  0  0  0  0  0  0  0  0  0  0  0
    7.8517   -1.3000   -0.1440 H   0  0  0  0  0  0  0  0  0  0  0  0
    7.0447   -0.6931    1.4138 H   0  0  0  0  0  0  0  0  0  0  0  0
  1  2  2  0
  2  3  1  0
  2  4  1  0
  4  5  1  0
  4  6  1  0
  6  7  1  0
  7  8  1  0
  8  9  1  0
  9 10  1  0
 10 11  1  0
 11 12  2  0
 11 13  1  0
 13 14  1  0
 14 15  1  0
 15 16  2  3
  3 17  1  0
  4 18  1  1
  5 19  1  0
  5 20  1  0
  6 21  1  0
  6 22  1  0
  7 23  1  0
  7 24  1  0
  8 25  1  0
  8 26  1  0
  9 27  1  0
  9 28  1  0
 10 29  1  0
 14 30  1  0
 14 31  1  0
 15 32  1  0
 16 33  1  0
 16 34  1  0
M  END
>  <Name>  (86) 
UA66_peocK

>  <canvasUID>  (86) 
89

>  <MW>  (86) 
230.2609

>  <AlogP>  (86) 
0.6894

>  <HBA>  (86) 
2

>  <HBD>  (86) 
1

>  <RB>  (86) 
9

>  <PSA>  (86) 
101.65

>  <Estate>  (86) 
48.167

>  <Polar>  (86) 
23.08

>  <Chirality>  (86) 
[(3, 'S')]

$$$$

     RDKit          3D

 27 28  0  0  0  0  0  0  0  0999 V2000
   -3.6856    0.1306   -0.3930 C   0  0  0  0  0  0  0  0  0  0  0  0
   -3.8061    0.8162    0.7493 C   0  0  0  0  0  0  0  0  0  0  0  0
   -2.6487    1.0008    1.6082 C   0  0  0  0  0  0  0  0  0  0  0  0
   -1.4307    0.5306    1.3506 C   0  0  0  0  0  0  0  0  0  0  0  0
   -1.1447   -0.2182    0.1739 N   0  0  0  0  0  0  0  0  0  0  0  0
   -2.3095   -0.4616   -0.7909 B   0  0  0  0  0  0  0  0  0  0  0  0
   -0.0343   -0.8605   -0.4173 C   0  0  0  0  0  0  0  0  0  0  0  0
   -0.3334   -1.4467   -1.5675 C   0  0  0  0  0  0  0  0  0  0  0  0
   -1.7018   -1.2773   -1.9138 N   0  0  0  0  0  0  0  0  0  0  0  0
    1.3273   -0.8994    0.1712 C   0  0  0  0  0  0  0  0  0  0  0  0
    1.9869    0.4553    0.2674 C   0  0  2  0  0  0  0  0  0  0  0  0
    2.0791    0.9808   -1.0906 N   0  0  0  0  0  0  0  0  0  0  0  0
    3.3306    0.2261    0.8448 C   0  0  0  0  0  0  0  0  0  0  0  0
    3.4611   -0.2210    1.9984 O   0  0  0  0  0  0  0  0  0  0  0  0
    4.4421    0.5142    0.0882 O   0  0  0  0  0  0  0  0  0  0  0  0
   -4.5058   -0.0393   -1.0697 H   0  0  0  0  0  0  0  0  0  0  0  0
   -4.7493    1.2293    1.0343 H   0  0  0  0  0  0  0  0  0  0  0  0
   -2.7246    1.5631    2.5558 H   0  0  0  0  0  0  0  0  0  0  0  0
   -0.6067    0.6992    2.0421 H   0  0  0  0  0  0  0  0  0  0  0  0
    0.3541   -2.0011   -2.2026 H   0  0  0  0  0  0  0  0  0  0  0  0
   -2.2413   -1.6150   -2.7477 H   0  0  0  0  0  0  0  0  0  0  0  0
    1.3006   -1.2990    1.2194 H   0  0  0  0  0  0  0  0  0  0  0  0
    2.0014   -1.6077   -0.3735 H   0  0  0  0  0  0  0  0  0  0  0  0
    1.4012    1.1167    0.9131 H   0  0  0  0  0  0  0  0  0  0  0  0
    2.0112    2.0137   -1.0840 H   0  0  0  0  0  0  0  0  0  0  0  0
    2.8780    0.5938   -1.6121 H   0  0  0  0  0  0  0  0  0  0  0  0
    5.3488    0.0766    0.2458 H   0  0  0  0  0  0  0  0  0  0  0  0
  1  2  2  0
  2  3  1  0
  3  4  2  0
  4  5  1  0
  5  6  1  0
  5  7  1  0
  7  8  2  0
  8  9  1  0
  7 10  1  0
 10 11  1  0
 11 12  1  0
 11 13  1  0
 13 14  2  0
 13 15  1  0
  6  1  1  0
  9  6  1  0
  1 16  1  0
  2 17  1  0
  3 18  1  0
  4 19  1  0
  8 20  1  0
  9 21  1  0
 10 22  1  0
 10 23  1  0
 11 24  1  1
 12 25  1  0
 12 26  1  0
 15 27  1  0
M  END
>  <Name>  (87) 
UA67_BNW

>  <canvasUID>  (87) 
90

>  <MW>  (87) 
205.0215

>  <AlogP>  (87) 
-0.8041

>  <HBA>  (87) 
0

>  <HBD>  (87) 
1

>  <RB>  (87) 
3

>  <PSA>  (87) 
84.04

>  <Estate>  (87) 
40

>  <Polar>  (87) 
23.724

>  <Chirality>  (87) 
[(10, 'S')]

$$$$

     RDKit          3D

 23 23  0  0  0  0  0  0  0  0999 V2000
    2.5774   -1.7348    0.1533 O   0  0  0  0  0  0  0  0  0  0  0  0
    2.2403   -0.5685    0.3005 C   0  0  0  0  0  0  0  0  0  0  0  0
    2.3305    0.0049    1.5183 O   0  0  0  0  0  0  0  0  0  0  0  0
    1.8254    0.4053   -0.8092 C   0  0  1  0  0  0  0  0  0  0  0  0
    1.5862   -0.3261   -2.0774 N   0  0  0  0  0  0  0  0  0  0  0  0
    0.6277    1.2909   -0.4185 C   0  0  0  0  0  0  0  0  0  0  0  0
   -0.6181    0.5631    0.0430 C   0  0  0  0  0  0  0  0  0  0  0  0
   -0.9768    0.5657    1.4009 C   0  0  0  0  0  0  0  0  0  0  0  0
   -2.1251   -0.1010    1.8312 C   0  0  0  0  0  0  0  0  0  0  0  0
   -2.9165   -0.7696    0.9060 C   0  0  0  0  0  0  0  0  0  0  0  0
   -4.0183   -1.4091    1.3203 F   0  0  0  0  0  0  0  0  0  0  0  0
   -2.5820   -0.7837   -0.4417 C   0  0  0  0  0  0  0  0  0  0  0  0
   -1.4346   -0.1165   -0.8735 C   0  0  0  0  0  0  0  0  0  0  0  0
    2.6165   -0.7362    2.0938 H   0  0  0  0  0  0  0  0  0  0  0  0
    2.6976    1.0496   -0.9782 H   0  0  0  0  0  0  0  0  0  0  0  0
    1.7538    0.2960   -2.8653 H   0  0  0  0  0  0  0  0  0  0  0  0
    2.2718   -1.0828   -2.1462 H   0  0  0  0  0  0  0  0  0  0  0  0
    0.9451    1.9834    0.3729 H   0  0  0  0  0  0  0  0  0  0  0  0
    0.3549    1.9378   -1.2637 H   0  0  0  0  0  0  0  0  0  0  0  0
   -0.3618    1.0856    2.1325 H   0  0  0  0  0  0  0  0  0  0  0  0
   -2.4061   -0.1030    2.8791 H   0  0  0  0  0  0  0  0  0  0  0  0
   -3.2117   -1.3147   -1.1478 H   0  0  0  0  0  0  0  0  0  0  0  0
   -1.1761   -0.1362   -1.9303 H   0  0  0  0  0  0  0  0  0  0  0  0
  1  2  2  0
  2  3  1  0
  2  4  1  0
  4  5  1  0
  4  6  1  0
  6  7  1  0
  7  8  2  0
  8  9  1  0
  9 10  2  0
 10 11  1  0
 10 12  1  0
 12 13  2  0
 13  7  1  0
  3 14  1  0
  4 15  1  6
  5 16  1  0
  5 17  1  0
  6 18  1  0
  6 19  1  0
  8 20  1  0
  9 21  1  0
 12 22  1  0
 13 23  1  0
M  END
>  <Name>  (88) 
UA68_F1F

>  <canvasUID>  (88) 
91

>  <MW>  (88) 
183.1796

>  <AlogP>  (88) 
1.0541

>  <HBA>  (88) 
0

>  <HBD>  (88) 
0

>  <RB>  (88) 
3

>  <PSA>  (88) 
63.32

>  <Estate>  (88) 
41.834

>  <Polar>  (88) 
21.186

>  <Chirality>  (88) 
[(3, 'S')]

$$$$

     RDKit          3D

 23 23  0  0  0  0  0  0  0  0999 V2000
   -2.8040    1.0249    1.3159 O   0  0  0  0  0  0  0  0  0  0  0  0
   -2.3892    0.5709    0.2601 C   0  0  0  0  0  0  0  0  0  0  0  0
   -2.2256    1.3818   -0.8092 O   0  0  0  0  0  0  0  0  0  0  0  0
   -1.9418   -0.8752    0.0236 C   0  0  1  0  0  0  0  0  0  0  0  0
   -1.8575   -1.1880   -1.4227 N   0  0  0  0  0  0  0  0  0  0  0  0
   -0.6456   -1.1658    0.8040 C   0  0  0  0  0  0  0  0  0  0  0  0
    0.5750   -0.3950    0.3518 C   0  0  0  0  0  0  0  0  0  0  0  0
    1.4398   -0.9222   -0.6178 C   0  0  0  0  0  0  0  0  0  0  0  0
    2.5546   -0.1947   -1.0325 C   0  0  0  0  0  0  0  0  0  0  0  0
    3.3673   -0.7148   -1.9614 F   0  0  0  0  0  0  0  0  0  0  0  0
    2.8362    1.0552   -0.5020 C   0  0  0  0  0  0  0  0  0  0  0  0
    1.9844    1.5751    0.4609 C   0  0  0  0  0  0  0  0  0  0  0  0
    2.2411    2.7801    0.9861 F   0  0  0  0  0  0  0  0  0  0  0  0
    0.8639    0.8668    0.8927 C   0  0  0  0  0  0  0  0  0  0  0  0
   -2.5569    2.2515   -0.5037 H   0  0  0  0  0  0  0  0  0  0  0  0
   -2.7403   -1.5101    0.4256 H   0  0  0  0  0  0  0  0  0  0  0  0
   -1.2398   -1.9809   -1.5753 H   0  0  0  0  0  0  0  0  0  0  0  0
   -1.4260   -0.3840   -1.8881 H   0  0  0  0  0  0  0  0  0  0  0  0
   -0.4232   -2.2400    0.7480 H   0  0  0  0  0  0  0  0  0  0  0  0
   -0.8079   -0.9616    1.8711 H   0  0  0  0  0  0  0  0  0  0  0  0
    1.2637   -1.8995   -1.0586 H   0  0  0  0  0  0  0  0  0  0  0  0
    3.7045    1.6128   -0.8309 H   0  0  0  0  0  0  0  0  0  0  0  0
    0.2274    1.3128    1.6537 H   0  0  0  0  0  0  0  0  0  0  0  0
  1  2  2  0
  2  3  1  0
  2  4  1  0
  4  5  1  0
  4  6  1  0
  6  7  1  0
  7  8  2  0
  8  9  1  0
  9 10  1  0
  9 11  2  0
 11 12  1  0
 12 13  1  0
 12 14  2  0
 14  7  1  0
  3 15  1  0
  4 16  1  1
  5 17  1  0
  5 18  1  0
  6 19  1  0
  6 20  1  0
  8 21  1  0
 11 22  1  0
 14 23  1  0
M  END
>  <Name>  (89) 
UA69_F2F

>  <canvasUID>  (89) 
92

>  <MW>  (89) 
201.1701

>  <AlogP>  (89) 
1.2596

>  <HBA>  (89) 
0

>  <HBD>  (89) 
0

>  <RB>  (89) 
3

>  <PSA>  (89) 
63.32

>  <Estate>  (89) 
49.501

>  <Polar>  (89) 
21.095

>  <Chirality>  (89) 
[(3, 'S')]

$$$$

     RDKit          3D

 23 23  0  0  0  0  0  0  0  0999 V2000
   -3.7502   -1.1346   -0.6891 O   0  0  0  0  0  0  0  0  0  0  0  0
   -3.1560   -0.1289   -0.3336 C   0  0  0  0  0  0  0  0  0  0  0  0
   -3.7650    0.7764    0.4663 O   0  0  0  0  0  0  0  0  0  0  0  0
   -1.6927    0.2034   -0.6316 C   0  0  1  0  0  0  0  0  0  0  0  0
   -1.5024    1.6711   -0.7092 N   0  0  0  0  0  0  0  0  0  0  0  0
   -0.8297   -0.4648    0.4528 C   0  0  0  0  0  0  0  0  0  0  0  0
    0.6566   -0.3992    0.1821 C   0  0  0  0  0  0  0  0  0  0  0  0
    1.2313   -1.1745   -0.8373 C   0  0  0  0  0  0  0  0  0  0  0  0
    2.6034   -1.1077   -1.0805 C   0  0  0  0  0  0  0  0  0  0  0  0
    3.1296   -1.8571   -2.0588 F   0  0  0  0  0  0  0  0  0  0  0  0
    3.4176   -0.2789   -0.3224 C   0  0  0  0  0  0  0  0  0  0  0  0
    4.7349   -0.2204   -0.5633 F   0  0  0  0  0  0  0  0  0  0  0  0
    2.8564    0.4886    0.6878 C   0  0  0  0  0  0  0  0  0  0  0  0
    3.6282    1.2946    1.4297 F   0  0  0  0  0  0  0  0  0  0  0  0
    1.4864    0.4353    0.9464 C   0  0  0  0  0  0  0  0  0  0  0  0
   -4.6828    0.4407    0.5432 H   0  0  0  0  0  0  0  0  0  0  0  0
   -1.4648   -0.2045   -1.6229 H   0  0  0  0  0  0  0  0  0  0  0  0
   -1.9415    2.0936    0.1123 H   0  0  0  0  0  0  0  0  0  0  0  0
   -0.5109    1.8973   -0.6667 H   0  0  0  0  0  0  0  0  0  0  0  0
   -1.1085   -1.5227    0.5544 H   0  0  0  0  0  0  0  0  0  0  0  0
   -1.0484   -0.0183    1.4326 H   0  0  0  0  0  0  0  0  0  0  0  0
    0.6250   -1.8382   -1.4494 H   0  0  0  0  0  0  0  0  0  0  0  0
    1.0836    1.0490    1.7483 H   0  0  0  0  0  0  0  0  0  0  0  0
  1  2  2  0
  2  3  1  0
  2  4  1  0
  4  5  1  0
  4  6  1  0
  6  7  1  0
  7  8  2  0
  8  9  1  0
  9 10  1  0
  9 11  2  0
 11 12  1  0
 11 13  1  0
 13 14  1  0
 13 15  2  0
 15  7  1  0
  3 16  1  0
  4 17  1  6
  5 18  1  0
  5 19  1  0
  6 20  1  0
  6 21  1  0
  8 22  1  0
 15 23  1  0
M  END
>  <Name>  (90) 
UA70_F3F

>  <canvasUID>  (90) 
93

>  <MW>  (90) 
219.1605

>  <AlogP>  (90) 
1.4651

>  <HBA>  (90) 
0

>  <HBD>  (90) 
0

>  <RB>  (90) 
3

>  <PSA>  (90) 
63.32

>  <Estate>  (90) 
57.168

>  <Polar>  (90) 
21.004

>  <Chirality>  (90) 
[(3, 'S')]

$$$$

     RDKit          3D

 26 26  0  0  0  0  0  0  0  0999 V2000
    4.6093   -0.7484    0.2640 O   0  0  0  0  0  0  0  0  0  0  0  0
    3.6632   -0.0441   -0.0565 C   0  0  0  0  0  0  0  0  0  0  0  0
    3.8437    1.2700   -0.2952 O   0  0  0  0  0  0  0  0  0  0  0  0
    2.2145   -0.5020   -0.2509 C   0  0  1  0  0  0  0  0  0  0  0  0
    2.1676   -1.9893   -0.2757 N   0  0  0  0  0  0  0  0  0  0  0  0
    1.3426    0.0735    0.8779 C   0  0  0  0  0  0  0  0  0  0  0  0
   -0.1185    0.1781    0.5056 C   0  0  0  0  0  0  0  0  0  0  0  0
   -0.9530   -0.9439    0.5660 C   0  0  0  0  0  0  0  0  0  0  0  0
   -2.3010   -0.8464    0.2131 C   0  0  0  0  0  0  0  0  0  0  0  0
   -2.8357    0.3719   -0.2192 C   0  0  0  0  0  0  0  0  0  0  0  0
   -4.2903    0.4830   -0.5663 C   0  0  0  0  0  0  0  0  0  0  0  0
   -2.0052    1.4965   -0.2714 C   0  0  0  0  0  0  0  0  0  0  0  0
   -0.6566    1.3993    0.0805 C   0  0  0  0  0  0  0  0  0  0  0  0
    4.8039    1.4103   -0.1538 H   0  0  0  0  0  0  0  0  0  0  0  0
    1.8868   -0.1431   -1.2339 H   0  0  0  0  0  0  0  0  0  0  0  0
    2.6328   -2.3336    0.5678 H   0  0  0  0  0  0  0  0  0  0  0  0
    2.7641   -2.3122   -1.0396 H   0  0  0  0  0  0  0  0  0  0  0  0
    1.6979    1.0708    1.1699 H   0  0  0  0  0  0  0  0  0  0  0  0
    1.4407   -0.5298    1.7912 H   0  0  0  0  0  0  0  0  0  0  0  0
   -0.5545   -1.9056    0.8828 H   0  0  0  0  0  0  0  0  0  0  0  0
   -2.9290   -1.7323    0.2735 H   0  0  0  0  0  0  0  0  0  0  0  0
   -4.8694    0.7391    0.3262 H   0  0  0  0  0  0  0  0  0  0  0  0
   -4.6677   -0.4603   -0.9749 H   0  0  0  0  0  0  0  0  0  0  0  0
   -4.4527    1.2538   -1.3270 H   0  0  0  0  0  0  0  0  0  0  0  0
   -2.4028    2.4575   -0.5895 H   0  0  0  0  0  0  0  0  0  0  0  0
   -0.0308    2.2870    0.0226 H   0  0  0  0  0  0  0  0  0  0  0  0
  1  2  2  0
  2  3  1  0
  2  4  1  0
  4  5  1  0
  4  6  1  0
  6  7  1  0
  7  8  2  0
  8  9  1  0
  9 10  2  0
 10 11  1  0
 10 12  1  0
 12 13  2  0
 13  7  1  0
  3 14  1  0
  4 15  1  6
  5 16  1  0
  5 17  1  0
  6 18  1  0
  6 19  1  0
  8 20  1  0
  9 21  1  0
 11 22  1  0
 11 23  1  0
 11 24  1  0
 12 25  1  0
 13 26  1  0
M  END
>  <Name>  (91) 
UA71_pMeF

>  <canvasUID>  (91) 
94

>  <MW>  (91) 
179.2157

>  <AlogP>  (91) 
1.3348

>  <HBA>  (91) 
0

>  <HBD>  (91) 
0

>  <RB>  (91) 
3

>  <PSA>  (91) 
63.32

>  <Estate>  (91) 
35.834

>  <Polar>  (91) 
23.112

>  <Chirality>  (91) 
[(3, 'S')]

$$$$

     RDKit          3D

 23 23  0  0  0  0  0  0  0  0999 V2000
    1.4664   -1.3360    2.0789 O   0  0  0  0  0  0  0  0  0  0  0  0
    1.9699   -0.8480    1.0788 C   0  0  0  0  0  0  0  0  0  0  0  0
    2.8060   -1.5913    0.3148 O   0  0  0  0  0  0  0  0  0  0  0  0
    1.8539    0.6080    0.6084 C   0  0  1  0  0  0  0  0  0  0  0  0
    2.2125    0.7472   -0.8250 N   0  0  0  0  0  0  0  0  0  0  0  0
    0.4710    1.2029    0.9281 C   0  0  0  0  0  0  0  0  0  0  0  0
   -0.7112    0.5242    0.2683 C   0  0  0  0  0  0  0  0  0  0  0  0
   -1.0496    0.8105   -1.0616 C   0  0  0  0  0  0  0  0  0  0  0  0
   -2.1399    0.1839   -1.6694 C   0  0  0  0  0  0  0  0  0  0  0  0
   -2.8991   -0.7339   -0.9480 C   0  0  0  0  0  0  0  0  0  0  0  0
   -4.3740   -1.5845   -1.7696 Br  0  0  0  0  0  0  0  0  0  0  0  0
   -2.5774   -1.0312    0.3739 C   0  0  0  0  0  0  0  0  0  0  0  0
   -1.4865   -0.4034    0.9794 C   0  0  0  0  0  0  0  0  0  0  0  0
    2.7617   -2.4808    0.7236 H   0  0  0  0  0  0  0  0  0  0  0  0
    2.6115    1.1568    1.1822 H   0  0  0  0  0  0  0  0  0  0  0  0
    2.9815    0.0977   -1.0131 H   0  0  0  0  0  0  0  0  0  0  0  0
    2.5711    1.6844   -0.9939 H   0  0  0  0  0  0  0  0  0  0  0  0
    0.4576    2.2661    0.6512 H   0  0  0  0  0  0  0  0  0  0  0  0
    0.3194    1.1912    2.0160 H   0  0  0  0  0  0  0  0  0  0  0  0
   -0.4566    1.5187   -1.6367 H   0  0  0  0  0  0  0  0  0  0  0  0
   -2.3825    0.4162   -2.7026 H   0  0  0  0  0  0  0  0  0  0  0  0
   -3.1639   -1.7490    0.9408 H   0  0  0  0  0  0  0  0  0  0  0  0
   -1.2417   -0.6496    2.0113 H   0  0  0  0  0  0  0  0  0  0  0  0
  1  2  2  0
  2  3  1  0
  2  4  1  0
  4  5  1  0
  4  6  1  0
  6  7  1  0
  7  8  2  0
  8  9  1  0
  9 10  2  0
 10 11  1  0
 10 12  1  0
 12 13  2  0
 13  7  1  0
  3 14  1  0
  4 15  1  1
  5 16  1  0
  5 17  1  0
  6 18  1  0
  6 19  1  0
  8 20  1  0
  9 21  1  0
 12 22  1  0
 13 23  1  0
M  END
>  <Name>  (92) 
UA72_pBrF

>  <canvasUID>  (92) 
95

>  <MW>  (92) 
244.0852

>  <AlogP>  (92) 
1.597

>  <HBA>  (92) 
0

>  <HBD>  (92) 
0

>  <RB>  (92) 
3

>  <PSA>  (92) 
63.32

>  <Estate>  (92) 
36.584

>  <Polar>  (92) 
23.903

>  <Chirality>  (92) 
[(3, 'S')]

$$$$

     RDKit          3D

 27 27  0  0  0  0  0  0  0  0999 V2000
   -4.8856    0.2429   -0.2555 O   0  0  0  0  0  0  0  0  0  0  0  0
   -3.8950   -0.0911    0.3778 C   0  0  0  0  0  0  0  0  0  0  0  0
   -3.9884   -0.3626    1.6945 O   0  0  0  0  0  0  0  0  0  0  0  0
   -2.4789   -0.2680   -0.1783 C   0  0  1  0  0  0  0  0  0  0  0  0
   -2.5287   -0.2558   -1.6658 N   0  0  0  0  0  0  0  0  0  0  0  0
   -1.5741    0.8501    0.3665 C   0  0  0  0  0  0  0  0  0  0  0  0
   -0.1064    0.4895    0.3474 C   0  0  0  0  0  0  0  0  0  0  0  0
    0.6410    0.5946   -0.8316 C   0  0  0  0  0  0  0  0  0  0  0  0
    1.9976    0.2512   -0.8528 C   0  0  0  0  0  0  0  0  0  0  0  0
    2.6240   -0.2042    0.3066 C   0  0  0  0  0  0  0  0  0  0  0  0
    1.8803   -0.3145    1.4832 C   0  0  0  0  0  0  0  0  0  0  0  0
    0.5256    0.0262    1.5068 C   0  0  0  0  0  0  0  0  0  0  0  0
    3.9366   -0.5712    0.4227 O   0  0  0  0  0  0  0  0  0  0  0  0
    4.7320   -0.4842   -0.7526 C   0  0  0  0  0  0  0  0  0  0  0  0
   -4.9376   -0.2291    1.9017 H   0  0  0  0  0  0  0  0  0  0  0  0
   -2.1252   -1.2578    0.1340 H   0  0  0  0  0  0  0  0  0  0  0  0
   -3.0253    0.5900   -1.9570 H   0  0  0  0  0  0  0  0  0  0  0  0
   -3.1383   -1.0183   -1.9676 H   0  0  0  0  0  0  0  0  0  0  0  0
   -1.8546    1.1053    1.3971 H   0  0  0  0  0  0  0  0  0  0  0  0
   -1.7250    1.7814   -0.1970 H   0  0  0  0  0  0  0  0  0  0  0  0
    0.1661    0.9368   -1.7493 H   0  0  0  0  0  0  0  0  0  0  0  0
    2.5303    0.3481   -1.7924 H   0  0  0  0  0  0  0  0  0  0  0  0
    2.3609   -0.6712    2.3908 H   0  0  0  0  0  0  0  0  0  0  0  0
   -0.0278   -0.0739    2.4376 H   0  0  0  0  0  0  0  0  0  0  0  0
    4.7967    0.5487   -1.1103 H   0  0  0  0  0  0  0  0  0  0  0  0
    4.3555   -1.1517   -1.5348 H   0  0  0  0  0  0  0  0  0  0  0  0
    5.7443   -0.8110   -0.4958 H   0  0  0  0  0  0  0  0  0  0  0  0
  1  2  2  0
  2  3  1  0
  2  4  1  0
  4  5  1  0
  4  6  1  0
  6  7  1  0
  7  8  2  0
  8  9  1  0
  9 10  2  0
 10 11  1  0
 11 12  2  0
 10 13  1  0
 13 14  1  0
 12  7  1  0
  3 15  1  0
  4 16  1  6
  5 17  1  0
  5 18  1  0
  6 19  1  0
  6 20  1  0
  8 21  1  0
  9 22  1  0
 11 23  1  0
 12 24  1  0
 14 25  1  0
 14 26  1  0
 14 27  1  0
M  END
>  <Name>  (93) 
UA73_OMeY

>  <canvasUID>  (93) 
96

>  <MW>  (93) 
195.2151

>  <AlogP>  (93) 
0.8322

>  <HBA>  (93) 
1

>  <HBD>  (93) 
0

>  <RB>  (93) 
4

>  <PSA>  (93) 
72.55

>  <Estate>  (93) 
39.334

>  <Polar>  (93) 
23.749

>  <Chirality>  (93) 
[(3, 'S')]

$$$$

     RDKit          3D

 27 27  0  0  0  0  0  0  0  0999 V2000
   -2.9316   -1.7075   -0.7226 O   0  0  0  0  0  0  0  0  0  0  0  0
   -2.9611   -0.8386    0.1350 C   0  0  0  0  0  0  0  0  0  0  0  0
   -3.3218   -1.1536    1.4019 O   0  0  0  0  0  0  0  0  0  0  0  0
   -2.7252    0.6630   -0.0730 C   0  0  1  0  0  0  0  0  0  0  0  0
   -2.4218    1.3498    1.2076 N   0  0  0  0  0  0  0  0  0  0  0  0
   -1.6546    0.9265   -1.1470 C   0  0  0  0  0  0  0  0  0  0  0  0
   -0.2698    0.3948   -0.8454 C   0  0  0  0  0  0  0  0  0  0  0  0
    0.1688   -0.8109   -1.4042 C   0  0  0  0  0  0  0  0  0  0  0  0
    1.4463   -1.2916   -1.1200 C   0  0  0  0  0  0  0  0  0  0  0  0
    1.8301   -2.4518   -1.6755 F   0  0  0  0  0  0  0  0  0  0  0  0
    2.3185   -0.5950   -0.2788 C   0  0  0  0  0  0  0  0  0  0  0  0
    1.8843    0.6071    0.2812 C   0  0  0  0  0  0  0  0  0  0  0  0
    0.6016    1.0961   -0.0013 C   0  0  0  0  0  0  0  0  0  0  0  0
    3.5434   -1.1719   -0.0789 O   0  0  0  0  0  0  0  0  0  0  0  0
    4.4465   -0.4927    0.7826 C   0  0  0  0  0  0  0  0  0  0  0  0
   -3.4163   -2.1290    1.3777 H   0  0  0  0  0  0  0  0  0  0  0  0
   -3.6848    1.0586   -0.4295 H   0  0  0  0  0  0  0  0  0  0  0  0
   -2.7364    2.3162    1.1536 H   0  0  0  0  0  0  0  0  0  0  0  0
   -2.9835    0.8988    1.9360 H   0  0  0  0  0  0  0  0  0  0  0  0
   -1.5774    2.0074   -1.3283 H   0  0  0  0  0  0  0  0  0  0  0  0
   -1.9928    0.5017   -2.1019 H   0  0  0  0  0  0  0  0  0  0  0  0
   -0.4725   -1.3945   -2.0594 H   0  0  0  0  0  0  0  0  0  0  0  0
    2.5133    1.1906    0.9450 H   0  0  0  0  0  0  0  0  0  0  0  0
    0.2815    2.0316    0.4547 H   0  0  0  0  0  0  0  0  0  0  0  0
    4.7077    0.4928    0.3832 H   0  0  0  0  0  0  0  0  0  0  0  0
    4.0416   -0.4142    1.7970 H   0  0  0  0  0  0  0  0  0  0  0  0
    5.3659   -1.0837    0.8366 H   0  0  0  0  0  0  0  0  0  0  0  0
  1  2  2  0
  2  3  1  0
  2  4  1  0
  4  5  1  0
  4  6  1  0
  6  7  1  0
  7  8  2  0
  8  9  1  0
  9 10  1  0
  9 11  2  0
 11 12  1  0
 12 13  2  0
 11 14  1  0
 14 15  1  0
 13  7  1  0
  3 16  1  0
  4 17  1  6
  5 18  1  0
  5 19  1  0
  6 20  1  0
  6 21  1  0
  8 22  1  0
 12 23  1  0
 13 24  1  0
 15 25  1  0
 15 26  1  0
 15 27  1  0
M  END
>  <Name>  (94) 
UA74_F1OMeY

>  <canvasUID>  (94) 
97

>  <MW>  (94) 
213.2056

>  <AlogP>  (94) 
1.0377

>  <HBA>  (94) 
1

>  <HBD>  (94) 
0

>  <RB>  (94) 
4

>  <PSA>  (94) 
72.55

>  <Estate>  (94) 
47.001

>  <Polar>  (94) 
23.658

>  <Chirality>  (94) 
[(3, 'S')]

$$$$

     RDKit          3D

 27 27  0  0  0  0  0  0  0  0999 V2000
   -4.6123    1.4279   -0.2187 O   0  0  0  0  0  0  0  0  0  0  0  0
   -4.0208    0.3597   -0.2276 C   0  0  0  0  0  0  0  0  0  0  0  0
   -4.5803   -0.7239   -0.8135 O   0  0  0  0  0  0  0  0  0  0  0  0
   -2.6064    0.1096    0.2988 C   0  0  1  0  0  0  0  0  0  0  0  0
   -2.4820   -1.2794    0.8016 N   0  0  0  0  0  0  0  0  0  0  0  0
   -1.6196    0.4357   -0.8358 C   0  0  0  0  0  0  0  0  0  0  0  0
   -0.1693    0.4173   -0.4128 C   0  0  0  0  0  0  0  0  0  0  0  0
    0.6880   -0.6062   -0.8339 C   0  0  0  0  0  0  0  0  0  0  0  0
    2.0299   -0.6214   -0.4382 C   0  0  0  0  0  0  0  0  0  0  0  0
    2.7858   -1.6366   -0.8812 F   0  0  0  0  0  0  0  0  0  0  0  0
    2.5554    0.3768    0.3825 C   0  0  0  0  0  0  0  0  0  0  0  0
    1.6910    1.3945    0.7945 C   0  0  0  0  0  0  0  0  0  0  0  0
    2.1433    2.3816    1.5835 F   0  0  0  0  0  0  0  0  0  0  0  0
    0.3492    1.4236    0.4086 C   0  0  0  0  0  0  0  0  0  0  0  0
    3.8411    0.4782    0.8393 O   0  0  0  0  0  0  0  0  0  0  0  0
    4.7578   -0.5333    0.4434 C   0  0  0  0  0  0  0  0  0  0  0  0
   -5.4737   -0.4137   -1.0715 H   0  0  0  0  0  0  0  0  0  0  0  0
   -2.4572    0.7777    1.1546 H   0  0  0  0  0  0  0  0  0  0  0  0
   -1.4999   -1.5085    0.9427 H   0  0  0  0  0  0  0  0  0  0  0  0
   -2.8364   -1.9120    0.0808 H   0  0  0  0  0  0  0  0  0  0  0  0
   -1.8396    1.4299   -1.2487 H   0  0  0  0  0  0  0  0  0  0  0  0
   -1.7704   -0.2592   -1.6736 H   0  0  0  0  0  0  0  0  0  0  0  0
    0.3302   -1.4072   -1.4764 H   0  0  0  0  0  0  0  0  0  0  0  0
   -0.2734    2.2432    0.7586 H   0  0  0  0  0  0  0  0  0  0  0  0
    5.7276   -0.2972    0.8923 H   0  0  0  0  0  0  0  0  0  0  0  0
    4.8911   -0.5427   -0.6431 H   0  0  0  0  0  0  0  0  0  0  0  0
    4.4506   -1.5143    0.8199 H   0  0  0  0  0  0  0  0  0  0  0  0
  1  2  2  0
  2  3  1  0
  2  4  1  0
  4  5  1  0
  4  6  1  0
  6  7  1  0
  7  8  2  0
  8  9  1  0
  9 10  1  0
  9 11  2  0
 11 12  1  0
 12 13  1  0
 12 14  2  0
 11 15  1  0
 15 16  1  0
 14  7  1  0
  3 17  1  0
  4 18  1  1
  5 19  1  0
  5 20  1  0
  6 21  1  0
  6 22  1  0
  8 23  1  0
 14 24  1  0
 16 25  1  0
 16 26  1  0
 16 27  1  0
M  END
>  <Name>  (95) 
UA75_F2OMeY

>  <canvasUID>  (95) 
98

>  <MW>  (95) 
231.196

>  <AlogP>  (95) 
1.2432

>  <HBA>  (95) 
1

>  <HBD>  (95) 
0

>  <RB>  (95) 
4

>  <PSA>  (95) 
72.55

>  <Estate>  (95) 
54.668

>  <Polar>  (95) 
23.567

>  <Chirality>  (95) 
[(3, 'S')]

$$$$

     RDKit          3D

 27 27  0  0  0  0  0  0  0  0999 V2000
   -4.3770    0.2718    1.4023 O   0  0  0  0  0  0  0  0  0  0  0  0
   -3.9209   -0.2434    0.3948 C   0  0  0  0  0  0  0  0  0  0  0  0
   -4.7550   -0.7441   -0.5460 O   0  0  0  0  0  0  0  0  0  0  0  0
   -2.4379   -0.4453    0.0561 C   0  0  1  0  0  0  0  0  0  0  0  0
   -2.2441   -0.5632   -1.4133 N   0  0  0  0  0  0  0  0  0  0  0  0
   -1.6155    0.7157    0.6408 C   0  0  0  0  0  0  0  0  0  0  0  0
   -0.1372    0.5938    0.3765 C   0  0  0  0  0  0  0  0  0  0  0  0
    0.6384   -0.3500    1.0507 C   0  0  0  0  0  0  0  0  0  0  0  0
    0.0595   -1.1407    1.9673 F   0  0  0  0  0  0  0  0  0  0  0  0
    2.0053   -0.4904    0.7956 C   0  0  0  0  0  0  0  0  0  0  0  0
    2.6816   -1.4175    1.4901 F   0  0  0  0  0  0  0  0  0  0  0  0
    2.6390    0.3156   -0.1516 C   0  0  0  0  0  0  0  0  0  0  0  0
    1.8619    1.2606   -0.8298 C   0  0  0  0  0  0  0  0  0  0  0  0
    2.4300    2.0593   -1.7474 F   0  0  0  0  0  0  0  0  0  0  0  0
    0.4976    1.3955   -0.5712 C   0  0  0  0  0  0  0  0  0  0  0  0
   -0.2111    2.3132   -1.2462 F   0  0  0  0  0  0  0  0  0  0  0  0
    3.9628    0.2908   -0.4996 O   0  0  0  0  0  0  0  0  0  0  0  0
    4.7937   -0.6713    0.1378 C   0  0  0  0  0  0  0  0  0  0  0  0
   -5.6502   -0.5703   -0.1846 H   0  0  0  0  0  0  0  0  0  0  0  0
   -2.1370   -1.3968    0.5091 H   0  0  0  0  0  0  0  0  0  0  0  0
   -2.4848    0.3280   -1.8508 H   0  0  0  0  0  0  0  0  0  0  0  0
   -2.9569   -1.2150   -1.7568 H   0  0  0  0  0  0  0  0  0  0  0  0
   -1.7661    0.7709    1.7275 H   0  0  0  0  0  0  0  0  0  0  0  0
   -1.9894    1.6732    0.2537 H   0  0  0  0  0  0  0  0  0  0  0  0
    4.4587   -1.6902   -0.0813 H   0  0  0  0  0  0  0  0  0  0  0  0
    4.8518   -0.4893    1.2156 H   0  0  0  0  0  0  0  0  0  0  0  0
    5.8031   -0.5610   -0.2702 H   0  0  0  0  0  0  0  0  0  0  0  0
  1  2  2  0
  2  3  1  0
  2  4  1  0
  4  5  1  0
  4  6  1  0
  6  7  1  0
  7  8  2  0
  8  9  1  0
  8 10  1  0
 10 11  1  0
 10 12  2  0
 12 13  1  0
 13 14  1  0
 13 15  2  0
 15 16  1  0
 12 17  1  0
 17 18  1  0
 15  7  1  0
  3 19  1  0
  4 20  1  1
  5 21  1  0
  5 22  1  0
  6 23  1  0
  6 24  1  0
 18 25  1  0
 18 26  1  0
 18 27  1  0
M  END
>  <Name>  (96) 
UA76_F4OMeY

>  <canvasUID>  (96) 
99

>  <MW>  (96) 
267.177

>  <AlogP>  (96) 
1.6542

>  <HBA>  (96) 
1

>  <HBD>  (96) 
0

>  <RB>  (96) 
4

>  <PSA>  (96) 
72.55

>  <Estate>  (96) 
70.002

>  <Polar>  (96) 
23.385

>  <Chirality>  (96) 
[(3, 'S')]

$$$$

     RDKit          3D

 27 28  0  0  0  0  0  0  0  0999 V2000
   -3.3410   -0.0173   -1.4791 O   0  0  0  0  0  0  0  0  0  0  0  0
   -3.1690    0.2340   -0.2951 C   0  0  0  0  0  0  0  0  0  0  0  0
   -3.7639    1.3091    0.2601 O   0  0  0  0  0  0  0  0  0  0  0  0
   -2.3638   -0.6003    0.7059 C   0  0  1  0  0  0  0  0  0  0  0  0
   -1.8665   -1.8405    0.0560 N   0  0  0  0  0  0  0  0  0  0  0  0
   -1.2397    0.2266    1.3556 C   0  0  0  0  0  0  0  0  0  0  0  0
   -0.1401    0.6485    0.4183 C   0  0  0  0  0  0  0  0  0  0  0  0
   -0.1755    1.7179   -0.4582 C   0  0  0  0  0  0  0  0  0  0  0  0
    1.0092    1.7621   -1.1423 N   0  0  0  0  0  0  0  0  0  0  0  0
    1.8330    0.7492   -0.7161 C   0  0  0  0  0  0  0  0  0  0  0  0
    1.1477    0.0346    0.2701 C   0  0  0  0  0  0  0  0  0  0  0  0
    3.1275    0.4104   -1.1191 C   0  0  0  0  0  0  0  0  0  0  0  0
    3.7525    1.1193   -2.0685 F   0  0  0  0  0  0  0  0  0  0  0  0
    3.7518   -0.6750   -0.5116 C   0  0  0  0  0  0  0  0  0  0  0  0
    4.9949   -1.0165   -0.8817 F   0  0  0  0  0  0  0  0  0  0  0  0
    3.1014   -1.4007    0.4735 C   0  0  0  0  0  0  0  0  0  0  0  0
    3.7218   -2.4394    1.0531 F   0  0  0  0  0  0  0  0  0  0  0  0
    1.8082   -1.0592    0.8722 C   0  0  0  0  0  0  0  0  0  0  0  0
    1.2065   -1.7709    1.8361 F   0  0  0  0  0  0  0  0  0  0  0  0
   -4.2689    1.7081   -0.4798 H   0  0  0  0  0  0  0  0  0  0  0  0
   -3.0686   -0.9145    1.4853 H   0  0  0  0  0  0  0  0  0  0  0  0
   -1.2411   -1.5668   -0.7053 H   0  0  0  0  0  0  0  0  0  0  0  0
   -2.6540   -2.2877   -0.4183 H   0  0  0  0  0  0  0  0  0  0  0  0
   -0.8072   -0.3511    2.1820 H   0  0  0  0  0  0  0  0  0  0  0  0
   -1.6621    1.1290    1.8169 H   0  0  0  0  0  0  0  0  0  0  0  0
   -0.9475    2.4507   -0.6568 H   0  0  0  0  0  0  0  0  0  0  0  0
    1.2545    2.4404   -1.8532 H   0  0  0  0  0  0  0  0  0  0  0  0
  1  2  2  0
  2  3  1  0
  2  4  1  0
  4  5  1  0
  4  6  1  0
  6  7  1  0
  7  8  2  0
  8  9  1  0
  9 10  1  0
 10 11  2  0
 10 12  1  0
 12 13  1  0
 12 14  2  0
 14 15  1  0
 14 16  1  0
 16 17  1  0
 16 18  2  0
 18 19  1  0
 11  7  1  0
 18 11  1  0
  3 20  1  0
  4 21  1  1
  5 22  1  0
  5 23  1  0
  6 24  1  0
  6 25  1  0
  8 26  1  0
  9 27  1  0
M  END
>  <Name>  (97) 
UA77_F4W

>  <canvasUID>  (97) 
100

>  <MW>  (97) 
276.187

>  <AlogP>  (97) 
1.4483

>  <HBA>  (97) 
0

>  <HBD>  (97) 
1

>  <RB>  (97) 
3

>  <PSA>  (97) 
79.11

>  <Estate>  (97) 
70.669

>  <Polar>  (97) 
26.122

>  <Chirality>  (97) 
[(3, 'S')]

$$$$

     RDKit          3D

 21 20  0  0  0  0  0  0  0  0999 V2000
    3.0572   -1.3297    1.3051 O   0  0  0  0  0  0  0  0  0  0  0  0
    2.3327   -0.3564    1.1567 C   0  0  0  0  0  0  0  0  0  0  0  0
    2.2818    0.6154    2.0870 O   0  0  0  0  0  0  0  0  0  0  0  0
    1.4180   -0.1095   -0.0411 C   0  0  1  0  0  0  0  0  0  0  0  0
    1.7046   -1.0380   -1.0884 O   0  0  0  0  0  0  0  0  0  0  0  0
   -0.0483   -0.2497    0.3785 C   0  0  0  0  0  0  0  0  0  0  0  0
   -1.0636   -0.0754   -0.7689 C   0  0  0  0  0  0  0  0  0  0  0  0
   -2.4807   -0.3337   -0.2497 C   0  0  0  0  0  0  0  0  0  0  0  0
   -0.9914    1.3150   -1.4012 C   0  0  0  0  0  0  0  0  0  0  0  0
    2.9198    0.3280    2.7740 H   0  0  0  0  0  0  0  0  0  0  0  0
    1.6385    0.8908   -0.4260 H   0  0  0  0  0  0  0  0  0  0  0  0
    2.0105   -1.8609   -0.6593 H   0  0  0  0  0  0  0  0  0  0  0  0
   -0.2722    0.4657    1.1804 H   0  0  0  0  0  0  0  0  0  0  0  0
   -0.1914   -1.2502    0.8098 H   0  0  0  0  0  0  0  0  0  0  0  0
   -0.8562   -0.8187   -1.5484 H   0  0  0  0  0  0  0  0  0  0  0  0
   -2.7561    0.3847    0.5299 H   0  0  0  0  0  0  0  0  0  0  0  0
   -3.2131   -0.2518   -1.0599 H   0  0  0  0  0  0  0  0  0  0  0  0
   -2.5632   -1.3410    0.1722 H   0  0  0  0  0  0  0  0  0  0  0  0
   -1.1300    2.1003   -0.6504 H   0  0  0  0  0  0  0  0  0  0  0  0
   -0.0282    1.4791   -1.8935 H   0  0  0  0  0  0  0  0  0  0  0  0
   -1.7688    1.4358   -2.1634 H   0  0  0  0  0  0  0  0  0  0  0  0
  1  2  2  0
  2  3  1  0
  2  4  1  0
  4  5  1  0
  4  6  1  0
  6  7  1  0
  7  8  1  0
  7  9  1  0
  3 10  1  0
  4 11  1  6
  5 12  1  0
  6 13  1  0
  6 14  1  0
  7 15  1  0
  8 16  1  0
  8 17  1  0
  8 18  1  0
  9 19  1  0
  9 20  1  0
  9 21  1  0
M  END
>  <Name>  (98) 
UA78_Lah

>  <canvasUID>  (98) 
101

>  <MW>  (98) 
132.1577

>  <AlogP>  (98) 
0.814

>  <HBA>  (98) 
1

>  <HBD>  (98) 
1

>  <RB>  (98) 
3

>  <PSA>  (98) 
57.53

>  <Estate>  (98) 
29.833

>  <Polar>  (98) 
13.144

>  <Chirality>  (98) 
[(3, 'S')]

$$$$

     RDKit          3D

 16 15  0  0  0  0  0  0  0  0999 V2000
    1.6643   -2.1983    0.3887 O   0  0  0  0  0  0  0  0  0  0  0  0
    1.4866   -0.9999    0.2198 C   0  0  0  0  0  0  0  0  0  0  0  0
    2.3643   -0.1006    0.7010 O   0  0  0  0  0  0  0  0  0  0  0  0
    0.3622   -0.3950   -0.6143 C   0  0  1  0  0  0  0  0  0  0  0  0
   -0.5584   -1.4117   -1.0448 O   0  0  0  0  0  0  0  0  0  0  0  0
   -0.4172    0.6644    0.1774 C   0  0  1  0  0  0  0  0  0  0  0  0
   -1.3172    1.4955   -0.7314 C   0  0  0  0  0  0  0  0  0  0  0  0
   -1.2585    0.0216    1.1444 O   0  0  0  0  0  0  0  0  0  0  0  0
    3.0137   -0.6379    1.2033 H   0  0  0  0  0  0  0  0  0  0  0  0
    0.8238    0.0352   -1.5100 H   0  0  0  0  0  0  0  0  0  0  0  0
   -0.0405   -2.2394   -1.1090 H   0  0  0  0  0  0  0  0  0  0  0  0
    0.2554    1.3377    0.7185 H   0  0  0  0  0  0  0  0  0  0  0  0
   -2.0609    0.8703   -1.2374 H   0  0  0  0  0  0  0  0  0  0  0  0
   -1.8769    2.2299   -0.1419 H   0  0  0  0  0  0  0  0  0  0  0  0
   -0.7330    2.0289   -1.4873 H   0  0  0  0  0  0  0  0  0  0  0  0
   -1.7078   -0.7006    0.6593 H   0  0  0  0  0  0  0  0  0  0  0  0
  1  2  2  0
  2  3  1  0
  2  4  1  0
  4  5  1  0
  4  6  1  0
  6  7  1  0
  6  8  1  0
  3  9  1  0
  4 10  1  6
  5 11  1  0
  6 12  1  1
  7 13  1  0
  7 14  1  0
  7 15  1  0
  8 16  1  0
M  END
>  <Name>  (99) 
UA79_Tah

>  <canvasUID>  (99) 
102

>  <MW>  (99) 
120.1039

>  <AlogP>  (99) 
-0.9284

>  <HBA>  (99) 
2

>  <HBD>  (99) 
2

>  <RB>  (99) 
2

>  <PSA>  (99) 
77.76

>  <Estate>  (99) 
32.333

>  <Polar>  (99) 
10.111

>  <Chirality>  (99) 
[(3, 'S'), (5, 'R')]

$$$$

     RDKit          3D

 35 36  0  0  0  0  0  0  0  0999 V2000
    2.2002   -2.1101   -1.0839 O   0  0  0  0  0  0  0  0  0  0  0  0
    2.9805   -1.2837   -0.5745 C   0  0  0  0  0  0  0  0  0  0  0  0
    4.3450   -1.5197   -0.5985 O   0  0  0  0  0  0  0  0  0  0  0  0
    2.4812   -0.0431    0.0623 C   0  0  1  0  0  0  0  0  0  0  0  0
    3.5664    0.7457    0.5795 N   0  0  0  0  0  0  0  0  0  0  0  0
    1.7352    0.8405   -0.9395 C   0  0  0  0  0  0  0  0  0  0  0  0
    1.1339    2.4260    0.0050 Se  0  0  0  0  0  2  0  0  0  0  0  0
   -0.5354    2.0385    0.9015 C   0  0  0  0  0  0  0  0  0  0  0  0
   -0.2333    1.7517    2.3679 C   0  0  0  0  0  0  0  0  0  0  0  0
   -1.1835    0.8468    0.2993 C   0  0  0  0  0  0  0  0  0  0  0  0
   -1.4260   -0.2693    1.0614 C   0  0  0  0  0  0  0  0  0  0  0  0
   -1.5459    0.8511   -1.0268 C   0  0  0  0  0  0  0  0  0  0  0  0
   -1.3080    1.9808   -1.8305 N   0  0  0  0  0  4  0  0  0  0  0  0
   -1.0387    1.8181   -3.1772 O   0  0  0  0  0  1  0  0  0  0  0  0
   -1.3260    3.1482   -1.4037 O   0  0  0  0  0  0  0  0  0  0  0  0
   -2.1572   -0.2796   -1.5862 C   0  0  0  0  0  0  0  0  0  0  0  0
   -2.4032   -1.3975   -0.8343 C   0  0  0  0  0  0  0  0  0  0  0  0
   -2.0341   -1.3836    0.4895 C   0  0  0  0  0  0  0  0  0  0  0  0
   -2.9842   -2.6416   -1.1162 O   0  0  0  0  0  0  0  0  0  0  0  0
   -3.3353   -3.2312    0.1432 C   0  0  0  0  0  0  0  0  0  0  0  0
   -2.3920   -2.6196    1.0089 O   0  0  0  0  0  0  0  0  0  0  0  0
    4.7720   -2.3677   -0.9219 H   0  0  0  0  0  0  0  0  0  0  0  0
    1.8222   -0.3352    0.8843 H   0  0  0  0  0  0  0  0  0  0  0  0
    4.2861    0.8905   -0.1419 H   0  0  0  0  0  0  0  0  0  0  0  0
    3.9219    0.4106    1.4958 H   0  0  0  0  0  0  0  0  0  0  0  0
    0.8991    0.3140   -1.4019 H   0  0  0  0  0  0  0  0  0  0  0  0
    2.4221    1.1789   -1.7329 H   0  0  0  0  0  0  0  0  0  0  0  0
   -1.2276    2.9078    0.9048 H   0  0  0  0  0  0  0  0  0  0  0  0
    0.3432    2.6526    2.7279 H   0  0  0  0  0  0  0  0  0  0  0  0
    0.4744    0.9059    2.4654 H   0  0  0  0  0  0  0  0  0  0  0  0
   -1.1461    1.6171    2.9549 H   0  0  0  0  0  0  0  0  0  0  0  0
   -1.1440   -0.2795    2.1039 H   0  0  0  0  0  0  0  0  0  0  0  0
   -2.4436   -0.2787   -2.6308 H   0  0  0  0  0  0  0  0  0  0  0  0
   -3.1512   -4.3228    0.1296 H   0  0  0  0  0  0  0  0  0  0  0  0
   -4.3684   -2.9621    0.4154 H   0  0  0  0  0  0  0  0  0  0  0  0
  1  2  2  0
  2  3  1  0
  2  4  1  0
  4  5  1  0
  4  6  1  0
  6  7  1  0
  7  8  1  0
  8  9  1  0
  8 10  1  0
 10 11  2  0
 10 12  1  0
 12 13  1  0
 13 14  1  0
 13 15  2  0
 12 16  2  0
 16 17  1  0
 17 18  2  0
 17 19  1  0
 19 20  1  0
 20 21  1  0
 18 11  1  0
 21 18  1  0
  3 22  1  0
  4 23  1  1
  5 24  1  0
  5 25  1  0
  6 26  1  0
  6 27  1  0
  8 28  1  0
  9 29  1  0
  9 30  1  0
  9 31  1  0
 11 32  1  0
 16 33  1  0
 20 34  1  0
 20 35  1  0
M  CHG  2  13   1  14  -1
M  END
>  <Name>  (100) 
UA80_PSeC

>  <canvasUID>  (100) 
103

>  <MW>  (100) 
361.2094

>  <AlogP>  (100) 
1.2507

>  <HBA>  (100) 
2

>  <HBD>  (100) 
0

>  <RB>  (100) 
6

>  <PSA>  (100) 
124.92

>  <Estate>  (100) 
62.251

>  <Polar>  (100) 
28.828

>  <Chirality>  (100) 
[(3, 'R')]

$$$$

     RDKit          3D

 28 29  0  0  0  0  0  0  0  0999 V2000
    4.4637   -0.6596   -0.2702 O   0  0  0  0  0  0  0  0  0  0  0  0
    3.8203    0.1952    0.3172 C   0  0  0  0  0  0  0  0  0  0  0  0
    4.4184    1.3577    0.6718 O   0  0  0  0  0  0  0  0  0  0  0  0
    2.3561    0.1012    0.7709 C   0  0  1  0  0  0  0  0  0  0  0  0
    1.7979    1.4601    1.0042 N   0  0  0  0  0  0  0  0  0  0  0  0
    1.5583   -0.6971   -0.2752 C   0  0  0  0  0  0  0  0  0  0  0  0
    0.1575   -1.0271    0.1470 C   0  0  0  0  0  0  0  0  0  0  0  0
   -0.2194   -2.0513    0.9950 C   0  0  0  0  0  0  0  0  0  0  0  0
   -1.5811   -2.0226    1.1264 N   0  0  0  0  0  0  0  0  0  0  0  0
   -2.1127   -1.0065    0.3678 C   0  0  0  0  0  0  0  0  0  0  0  0
   -1.0451   -0.3619   -0.2594 C   0  0  0  0  0  0  0  0  0  0  0  0
   -3.4462   -0.6136    0.1935 C   0  0  0  0  0  0  0  0  0  0  0  0
   -3.6993    0.4728   -0.6500 C   0  0  0  0  0  0  0  0  0  0  0  0
   -2.6508    1.1283   -1.2851 C   0  0  0  0  0  0  0  0  0  0  0  0
   -1.3259    0.7305   -1.1055 C   0  0  0  0  0  0  0  0  0  0  0  0
   -2.8805    2.1910   -2.1125 O   0  0  0  0  0  0  0  0  0  0  0  0
    5.3367    1.2571    0.3431 H   0  0  0  0  0  0  0  0  0  0  0  0
    2.3602   -0.4248    1.7328 H   0  0  0  0  0  0  0  0  0  0  0  0
    2.5217    2.0081    1.4769 H   0  0  0  0  0  0  0  0  0  0  0  0
    1.6561    1.9218    0.1070 H   0  0  0  0  0  0  0  0  0  0  0  0
    1.5438   -0.1537   -1.2293 H   0  0  0  0  0  0  0  0  0  0  0  0
    2.0748   -1.6428   -0.4893 H   0  0  0  0  0  0  0  0  0  0  0  0
    0.3675   -2.7940    1.5186 H   0  0  0  0  0  0  0  0  0  0  0  0
   -2.1244   -2.6568    1.6948 H   0  0  0  0  0  0  0  0  0  0  0  0
   -4.2584   -1.1303    0.6939 H   0  0  0  0  0  0  0  0  0  0  0  0
   -4.7269    0.7913   -0.7966 H   0  0  0  0  0  0  0  0  0  0  0  0
   -0.5271    1.2615   -1.6115 H   0  0  0  0  0  0  0  0  0  0  0  0
   -3.8353    2.3656   -2.1291 H   0  0  0  0  0  0  0  0  0  0  0  0
  1  2  2  0
  2  3  1  0
  2  4  1  0
  4  5  1  0
  4  6  1  0
  6  7  1  0
  7  8  2  0
  8  9  1  0
  9 10  1  0
 10 11  2  0
 10 12  1  0
 12 13  2  0
 13 14  1  0
 14 15  2  0
 14 16  1  0
 11  7  1  0
 15 11  1  0
  3 17  1  0
  4 18  1  1
  5 19  1  0
  5 20  1  0
  6 21  1  0
  6 22  1  0
  8 23  1  0
  9 24  1  0
 12 25  1  0
 13 26  1  0
 15 27  1  0
 16 28  1  0
M  END
>  <Name>  (101) 
UA81_5HTPW

>  <canvasUID>  (101) 
105

>  <MW>  (101) 
220.2246

>  <AlogP>  (101) 
0.3589

>  <HBA>  (101) 
1

>  <HBD>  (101) 
2

>  <RB>  (101) 
3

>  <PSA>  (101) 
99.34

>  <Estate>  (101) 
45.668

>  <Polar>  (101) 
27.123

>  <Chirality>  (101) 
[(3, 'S')]

$$$$

     RDKit          3D

 14 14  0  0  0  0  0  0  0  0999 V2000
    2.3648   -0.5019   -1.7703 O   0  0  0  0  0  0  0  0  0  0  0  0
    1.6433   -0.2161   -0.8220 C   0  0  0  0  0  0  0  0  0  0  0  0
    2.1533    0.5994    0.1424 O   0  0  0  0  0  0  0  0  0  0  0  0
    0.1562   -0.6566   -0.5590 C   0  0  2  0  0  0  0  0  0  0  0  0
   -0.9521    0.2665   -1.1065 C   0  0  0  0  0  0  0  0  0  0  0  0
   -1.6483    0.0334    0.2377 C   0  0  0  0  0  0  0  0  0  0  0  0
   -0.3453   -0.3441    0.8212 N   0  0  0  0  0  0  0  0  0  0  0  0
    3.0716    0.7584   -0.1625 H   0  0  0  0  0  0  0  0  0  0  0  0
   -0.0004   -1.7123   -0.8186 H   0  0  0  0  0  0  0  0  0  0  0  0
   -0.6398    1.3042   -1.2728 H   0  0  0  0  0  0  0  0  0  0  0  0
   -1.4858   -0.0946   -1.9892 H   0  0  0  0  0  0  0  0  0  0  0  0
   -2.3737   -0.7883    0.2316 H   0  0  0  0  0  0  0  0  0  0  0  0
   -2.1173    0.9128    0.6878 H   0  0  0  0  0  0  0  0  0  0  0  0
    0.1734    0.4391    1.2303 H   0  0  0  0  0  0  0  0  0  0  0  0
  1  2  2  0
  2  3  1  0
  2  4  1  0
  4  5  1  0
  5  6  1  0
  6  7  1  0
  7  4  1  0
  3  8  1  0
  4  9  1  6
  5 10  1  0
  5 11  1  0
  6 12  1  0
  6 13  1  0
  7 14  1  0
M  END
>  <Name>  (102) 
UA82_Aze

>  <canvasUID>  (102) 
106

>  <MW>  (102) 
101.1039

>  <AlogP>  (102) 
-0.7433

>  <HBA>  (102) 
0

>  <HBD>  (102) 
0

>  <RB>  (102) 
1

>  <PSA>  (102) 
49.33

>  <Estate>  (102) 
22.5

>  <Polar>  (102) 
9.414

>  <Chirality>  (102) 
[(3, 'S')]

$$$$

     RDKit          3D

 18 18  0  0  0  0  0  0  0  0999 V2000
   -2.4088    0.4637   -1.3699 O   0  0  0  0  0  0  0  0  0  0  0  0
   -2.1081    0.0484   -0.2604 C   0  0  0  0  0  0  0  0  0  0  0  0
   -3.0495   -0.0774    0.6969 O   0  0  0  0  0  0  0  0  0  0  0  0
   -0.7112   -0.3178    0.2233 C   0  0  2  0  0  0  0  0  0  0  0  0
   -0.0705    0.9511    0.8070 C   0  0  0  0  0  0  0  0  0  0  0  0
    1.2925    0.7290    1.1968 O   0  0  0  0  0  0  0  0  0  0  0  0
    2.0656    0.2651    0.0832 C   0  0  0  0  0  0  0  0  0  0  0  0
    1.4800   -1.0331   -0.4888 C   0  0  0  0  0  0  0  0  0  0  0  0
    0.0775   -0.8854   -0.9101 N   0  0  0  0  0  0  0  0  0  0  0  0
   -3.8839    0.1676    0.2436 H   0  0  0  0  0  0  0  0  0  0  0  0
   -0.7911   -1.0989    0.9888 H   0  0  0  0  0  0  0  0  0  0  0  0
   -0.1025    1.7855    0.0945 H   0  0  0  0  0  0  0  0  0  0  0  0
   -0.6173    1.2736    1.7001 H   0  0  0  0  0  0  0  0  0  0  0  0
    2.1087    1.0520   -0.6793 H   0  0  0  0  0  0  0  0  0  0  0  0
    3.0856    0.0880    0.4384 H   0  0  0  0  0  0  0  0  0  0  0  0
    2.0776   -1.3639   -1.3446 H   0  0  0  0  0  0  0  0  0  0  0  0
    1.5322   -1.8240    0.2690 H   0  0  0  0  0  0  0  0  0  0  0  0
    0.0231   -0.2235   -1.6884 H   0  0  0  0  0  0  0  0  0  0  0  0
  1  2  2  0
  2  3  1  0
  2  4  1  0
  4  5  1  0
  5  6  1  0
  6  7  1  0
  7  8  1  0
  8  9  1  0
  9  4  1  0
  3 10  1  0
  4 11  1  1
  5 12  1  0
  5 13  1  0
  7 14  1  0
  7 15  1  0
  8 16  1  0
  8 17  1  0
  9 18  1  0
M  END
>  <Name>  (103) 
UA83_Mor

>  <canvasUID>  (103) 
107

>  <MW>  (103) 
131.1299

>  <AlogP>  (103) 
-0.9366

>  <HBA>  (103) 
1

>  <HBD>  (103) 
0

>  <RB>  (103) 
1

>  <PSA>  (103) 
58.56

>  <Estate>  (103) 
27.5

>  <Polar>  (103) 
11.886

>  <Chirality>  (103) 
[(3, 'S')]

$$$$

     RDKit          3D

 16 15  0  0  0  0  0  0  0  0999 V2000
    0.3003    1.6381   -1.2879 O   0  0  0  0  0  0  0  0  0  0  0  0
    0.8589    0.9210   -0.4711 C   0  0  0  0  0  0  0  0  0  0  0  0
    2.1089    1.2106   -0.0549 O   0  0  0  0  0  0  0  0  0  0  0  0
    0.2976   -0.3510    0.1705 C   0  0  2  0  0  0  0  0  0  0  0  0
    0.9061   -1.5642   -0.5249 C   0  0  0  0  0  0  0  0  0  0  0  0
   -1.1767   -0.4187    0.0275 N   0  0  0  0  0  0  0  0  0  0  0  0
   -1.8514    0.4950    0.9424 C   0  0  0  0  0  0  0  0  0  0  0  0
    2.3370    2.0287   -0.5446 H   0  0  0  0  0  0  0  0  0  0  0  0
    0.5670   -0.3649    1.2332 H   0  0  0  0  0  0  0  0  0  0  0  0
    0.6830   -1.5676   -1.5983 H   0  0  0  0  0  0  0  0  0  0  0  0
    0.5276   -2.4973   -0.0934 H   0  0  0  0  0  0  0  0  0  0  0  0
    1.9968   -1.5664   -0.4199 H   0  0  0  0  0  0  0  0  0  0  0  0
   -1.4131   -0.1512   -0.9322 H   0  0  0  0  0  0  0  0  0  0  0  0
   -1.6318    0.2416    1.9846 H   0  0  0  0  0  0  0  0  0  0  0  0
   -1.5766    1.5388    0.7629 H   0  0  0  0  0  0  0  0  0  0  0  0
   -2.9338    0.4075    0.8062 H   0  0  0  0  0  0  0  0  0  0  0  0
  1  2  2  0
  2  3  1  0
  2  4  1  0
  4  5  1  0
  4  6  1  0
  6  7  1  0
  3  8  1  0
  4  9  1  1
  5 10  1  0
  5 11  1  0
  5 12  1  0
  6 13  1  0
  7 14  1  0
  7 15  1  0
  7 16  1  0
M  END
>  <Name>  (104) 
UA84_nMeA

>  <canvasUID>  (104) 
108

>  <MW>  (104) 
103.1198

>  <AlogP>  (104) 
-0.2755

>  <HBA>  (104) 
0

>  <HBD>  (104) 
0

>  <RB>  (104) 
2

>  <PSA>  (104) 
49.33

>  <Estate>  (104) 
23.5

>  <Polar>  (104) 
10.188

>  <Chirality>  (104) 
[(3, 'S')]

$$$$

     RDKit          3D

 20 20  0  0  0  0  0  0  0  0999 V2000
    2.8309   -0.7619   -0.1650 O   0  0  0  0  0  0  0  0  0  0  0  0
    2.0670    0.1527   -0.4365 C   0  0  0  0  0  0  0  0  0  0  0  0
    2.5156    1.4228   -0.5007 O   0  0  0  0  0  0  0  0  0  0  0  0
    0.5667    0.0376   -0.7045 C   0  0  2  0  0  0  0  0  0  0  0  0
   -0.2407    0.5115    0.5131 C   0  0  1  0  0  0  0  0  0  0  0  0
   -1.2432    1.5983    0.1264 C   0  0  0  0  0  0  0  0  0  0  0  0
   -0.9437   -0.7488    1.0087 C   0  0  0  0  0  0  0  0  0  0  0  0
   -1.0632   -1.6058   -0.2329 C   0  0  0  0  0  0  0  0  0  0  0  0
    0.1977   -1.3874   -0.9410 N   0  0  0  0  0  0  0  0  0  0  0  0
    3.4759    1.3417   -0.3213 H   0  0  0  0  0  0  0  0  0  0  0  0
    0.3423    0.6047   -1.6151 H   0  0  0  0  0  0  0  0  0  0  0  0
    0.3990    0.9059    1.3120 H   0  0  0  0  0  0  0  0  0  0  0  0
   -0.7215    2.4852   -0.2486 H   0  0  0  0  0  0  0  0  0  0  0  0
   -1.9332    1.2572   -0.6526 H   0  0  0  0  0  0  0  0  0  0  0  0
   -1.8380    1.9010    0.9946 H   0  0  0  0  0  0  0  0  0  0  0  0
   -0.3113   -1.2548    1.7494 H   0  0  0  0  0  0  0  0  0  0  0  0
   -1.9143   -0.5517    1.4742 H   0  0  0  0  0  0  0  0  0  0  0  0
   -1.9008   -1.2793   -0.8594 H   0  0  0  0  0  0  0  0  0  0  0  0
   -1.2115   -2.6627    0.0072 H   0  0  0  0  0  0  0  0  0  0  0  0
    0.9261   -1.9663   -0.5077 H   0  0  0  0  0  0  0  0  0  0  0  0
  1  2  2  0
  2  3  1  0
  2  4  1  0
  4  5  1  0
  5  6  1  0
  5  7  1  0
  7  8  1  0
  8  9  1  0
  9  4  1  0
  3 10  1  0
  4 11  1  6
  5 12  1  1
  6 13  1  0
  6 14  1  0
  6 15  1  0
  7 16  1  0
  7 17  1  0
  8 18  1  0
  8 19  1  0
  9 20  1  0
M  END
>  <Name>  (105) 
UA85_3MeP

>  <canvasUID>  (105) 
109

>  <MW>  (105) 
129.157

>  <AlogP>  (105) 
0.156

>  <HBA>  (105) 
0

>  <HBD>  (105) 
0

>  <RB>  (105) 
1

>  <PSA>  (105) 
49.33

>  <Estate>  (105) 
25.833

>  <Polar>  (105) 
13.084

>  <Chirality>  (105) 
[(3, 'S'), (4, 'S')]

$$$$

     RDKit          3D

 25 24  0  0  0  0  0  0  0  0999 V2000
    2.9142   -1.0812   -0.3061 C   0  0  0  0  0  0  0  0  0  0  0  0
    2.3689    0.1110    0.3215 N   0  0  0  0  0  0  0  0  0  0  0  0
    1.0024    0.4402   -0.1467 C   0  0  2  0  0  0  0  0  0  0  0  0
    0.7667    1.9158    0.2100 C   0  0  0  0  0  0  0  0  0  0  0  0
    0.5523    2.3755    1.3221 O   0  0  0  0  0  0  0  0  0  0  0  0
    0.8483    2.7366   -0.8592 O   0  0  0  0  0  0  0  0  0  0  0  0
   -0.0684   -0.4471    0.5248 C   0  0  0  0  0  0  0  0  0  0  0  0
   -1.4076   -0.5327   -0.2422 C   0  0  0  0  0  0  0  0  0  0  0  0
   -2.1465    0.8010   -0.3373 C   0  0  0  0  0  0  0  0  0  0  0  0
   -2.3157   -1.5691    0.4291 C   0  0  0  0  0  0  0  0  0  0  0  0
    2.3517   -1.9832   -0.0503 H   0  0  0  0  0  0  0  0  0  0  0  0
    2.9443   -0.9766   -1.3955 H   0  0  0  0  0  0  0  0  0  0  0  0
    3.9442   -1.2282    0.0340 H   0  0  0  0  0  0  0  0  0  0  0  0
    2.3650    0.0135    1.3376 H   0  0  0  0  0  0  0  0  0  0  0  0
    0.9471    0.3406   -1.2378 H   0  0  0  0  0  0  0  0  0  0  0  0
    0.7539    3.6302   -0.4700 H   0  0  0  0  0  0  0  0  0  0  0  0
    0.3124   -1.4719    0.6124 H   0  0  0  0  0  0  0  0  0  0  0  0
   -0.2563   -0.1091    1.5526 H   0  0  0  0  0  0  0  0  0  0  0  0
   -1.2028   -0.8834   -1.2618 H   0  0  0  0  0  0  0  0  0  0  0  0
   -1.6138    1.5051   -0.9817 H   0  0  0  0  0  0  0  0  0  0  0  0
   -2.2737    1.2581    0.6495 H   0  0  0  0  0  0  0  0  0  0  0  0
   -3.1416    0.6644   -0.7750 H   0  0  0  0  0  0  0  0  0  0  0  0
   -2.5627   -1.2751    1.4550 H   0  0  0  0  0  0  0  0  0  0  0  0
   -3.2528   -1.6845   -0.1259 H   0  0  0  0  0  0  0  0  0  0  0  0
   -1.8296   -2.5499    0.4643 H   0  0  0  0  0  0  0  0  0  0  0  0
  1  2  1  0
  2  3  1  0
  3  4  1  0
  4  5  2  0
  4  6  1  0
  3  7  1  0
  7  8  1  0
  8  9  1  0
  8 10  1  0
  1 11  1  0
  1 12  1  0
  1 13  1  0
  2 14  1  0
  3 15  1  6
  6 16  1  0
  7 17  1  0
  7 18  1  0
  8 19  1  0
  9 20  1  0
  9 21  1  0
  9 22  1  0
 10 23  1  0
 10 24  1  0
 10 25  1  0
M  END
>  <Name>  (106) 
UA86_nMeL

>  <canvasUID>  (106) 
110

>  <MW>  (106) 
145.1995

>  <AlogP>  (106) 
0.9562

>  <HBA>  (106) 
0

>  <HBD>  (106) 
0

>  <RB>  (106) 
4

>  <PSA>  (106) 
49.33

>  <Estate>  (106) 
28.333

>  <Polar>  (106) 
15.693

>  <Chirality>  (106) 
[(2, 'S')]

$$$$

     RDKit          3D

 12 11  0  0  0  0  0  0  0  0999 V2000
    1.3148   -0.5879    1.4491 O   0  0  0  0  0  0  0  0  0  0  0  0
    1.0233    0.0497    0.4519 C   0  0  0  0  0  0  0  0  0  0  0  0
    1.9923    0.5903   -0.3261 O   0  0  0  0  0  0  0  0  0  0  0  0
   -0.3750    0.3952   -0.0634 C   0  0  2  0  0  0  0  0  0  0  0  0
   -1.3515   -0.7321    0.2204 C   0  0  0  0  0  0  0  0  0  0  0  0
   -0.3785    0.6407   -1.4691 O   0  0  0  0  0  0  0  0  0  0  0  0
    2.8246    0.2985    0.1046 H   0  0  0  0  0  0  0  0  0  0  0  0
   -0.6962    1.3140    0.4380 H   0  0  0  0  0  0  0  0  0  0  0  0
   -1.4272   -0.9366    1.2930 H   0  0  0  0  0  0  0  0  0  0  0  0
   -2.3479   -0.4845   -0.1607 H   0  0  0  0  0  0  0  0  0  0  0  0
   -1.0384   -1.6548   -0.2812 H   0  0  0  0  0  0  0  0  0  0  0  0
    0.4597    1.1076   -1.6564 H   0  0  0  0  0  0  0  0  0  0  0  0
  1  2  2  0
  2  3  1  0
  2  4  1  0
  4  5  1  0
  4  6  1  0
  3  7  1  0
  4  8  1  1
  5  9  1  0
  5 10  1  0
  5 11  1  0
  6 12  1  0
M  END
>  <Name>  (107) 
UA87_Aah

>  <canvasUID>  (107) 
111

>  <MW>  (107) 
90.0779

>  <AlogP>  (107) 
-0.4177

>  <HBA>  (107) 
1

>  <HBD>  (107) 
1

>  <RB>  (107) 
1

>  <PSA>  (107) 
57.53

>  <Estate>  (107) 
25

>  <Polar>  (107) 
7.639

>  <Chirality>  (107) 
[(3, 'S')]

$$$$

     RDKit          3D

 35 36  0  0  0  0  0  0  0  0999 V2000
    5.0585    1.4568   -1.7109 O   0  0  0  0  0  0  0  0  0  0  0  0
    4.7612    1.0876   -0.5843 C   0  0  0  0  0  0  0  0  0  0  0  0
    4.3029    1.9803    0.3215 O   0  0  0  0  0  0  0  0  0  0  0  0
    4.7939   -0.3591   -0.0799 C   0  0  1  0  0  0  0  0  0  0  0  0
    4.7092   -0.4219    1.3999 N   0  0  0  0  0  0  0  0  0  0  0  0
    3.7269   -1.2016   -0.8041 C   0  0  0  0  0  0  0  0  0  0  0  0
    2.2913   -0.8119   -0.5259 C   0  0  0  0  0  0  0  0  0  0  0  0
    1.6544    0.1576   -1.3134 C   0  0  0  0  0  0  0  0  0  0  0  0
    0.3327    0.5272   -1.0505 C   0  0  0  0  0  0  0  0  0  0  0  0
   -0.3780   -0.0707   -0.0063 C   0  0  0  0  0  0  0  0  0  0  0  0
    0.2569   -1.0350    0.7822 C   0  0  0  0  0  0  0  0  0  0  0  0
    1.5785   -1.4081    0.5230 C   0  0  0  0  0  0  0  0  0  0  0  0
   -1.6970    0.3244    0.2724 N   0  0  0  0  0  0  0  0  0  0  0  0
   -2.4998   -0.4270   -0.3247 N   0  0  0  0  0  0  0  0  0  0  0  0
   -3.8189   -0.0311   -0.0431 C   0  0  0  0  0  0  0  0  0  0  0  0
   -4.5315   -0.5991    1.0169 C   0  0  0  0  0  0  0  0  0  0  0  0
   -3.9518   -1.5220    1.8003 F   0  0  0  0  0  0  0  0  0  0  0  0
   -5.8499   -0.2304    1.2900 C   0  0  0  0  0  0  0  0  0  0  0  0
   -6.4849    0.7189    0.4900 C   0  0  0  0  0  0  0  0  0  0  0  0
   -5.7963    1.2892   -0.5800 C   0  0  0  0  0  0  0  0  0  0  0  0
   -4.4783    0.9096   -0.8396 C   0  0  0  0  0  0  0  0  0  0  0  0
   -3.8466    1.4706   -1.8825 F   0  0  0  0  0  0  0  0  0  0  0  0
    4.3402    2.8385   -0.1480 H   0  0  0  0  0  0  0  0  0  0  0  0
    5.7839   -0.7501   -0.3432 H   0  0  0  0  0  0  0  0  0  0  0  0
    4.0036    0.2620    1.6910 H   0  0  0  0  0  0  0  0  0  0  0  0
    4.3597   -1.3325    1.6873 H   0  0  0  0  0  0  0  0  0  0  0  0
    3.8614   -2.2597   -0.5417 H   0  0  0  0  0  0  0  0  0  0  0  0
    3.8958   -1.1517   -1.8885 H   0  0  0  0  0  0  0  0  0  0  0  0
    2.1792    0.6326   -2.1406 H   0  0  0  0  0  0  0  0  0  0  0  0
   -0.1523    1.2811   -1.6654 H   0  0  0  0  0  0  0  0  0  0  0  0
   -0.2887   -1.5006    1.5992 H   0  0  0  0  0  0  0  0  0  0  0  0
    2.0410   -2.1702    1.1457 H   0  0  0  0  0  0  0  0  0  0  0  0
   -6.3705   -0.6901    2.1250 H   0  0  0  0  0  0  0  0  0  0  0  0
   -7.5119    1.0101    0.6972 H   0  0  0  0  0  0  0  0  0  0  0  0
   -6.2747    2.0265   -1.2181 H   0  0  0  0  0  0  0  0  0  0  0  0
  1  2  2  0
  2  3  1  0
  2  4  1  0
  4  5  1  0
  4  6  1  0
  6  7  1  0
  7  8  2  0
  8  9  1  0
  9 10  2  0
 10 11  1  0
 11 12  2  0
 10 13  1  0
 13 14  2  0
 14 15  1  0
 15 16  2  0
 16 17  1  0
 16 18  1  0
 18 19  2  0
 19 20  1  0
 20 21  2  0
 21 22  1  0
 12  7  1  0
 21 15  1  0
  3 23  1  0
  4 24  1  1
  5 25  1  0
  5 26  1  0
  6 27  1  0
  6 28  1  0
  8 29  1  0
  9 30  1  0
 11 31  1  0
 12 32  1  0
 18 33  1  0
 19 34  1  0
 20 35  1  0
M  END
>  <Name>  (108) 
UA88_F2AzoF

>  <canvasUID>  (108) 
112

>  <MW>  (108) 
305.2794

>  <AlogP>  (108) 
3.629

>  <HBA>  (108) 
2

>  <HBD>  (108) 
0

>  <RB>  (108) 
5

>  <PSA>  (108) 
88.04

>  <Estate>  (108) 
66.835

>  <Polar>  (108) 
36.079

>  <Chirality>  (108) 
[(3, 'S')]

$$$$

     RDKit          3D

 35 36  0  0  0  0  0  0  0  0999 V2000
   -4.6157    2.0434    0.3834 O   0  0  0  0  0  0  0  0  0  0  0  0
   -4.7349    0.8518    0.6268 C   0  0  0  0  0  0  0  0  0  0  0  0
   -4.9116    0.4329    1.8953 O   0  0  0  0  0  0  0  0  0  0  0  0
   -4.7616   -0.2844   -0.4004 C   0  0  1  0  0  0  0  0  0  0  0  0
   -4.6167    0.2619   -1.7742 N   0  0  0  0  0  0  0  0  0  0  0  0
   -3.7175   -1.3738   -0.0926 C   0  0  0  0  0  0  0  0  0  0  0  0
   -2.2730   -0.9228   -0.1124 C   0  0  0  0  0  0  0  0  0  0  0  0
   -1.5416   -0.9180   -1.3072 C   0  0  0  0  0  0  0  0  0  0  0  0
   -0.2099   -0.4961   -1.3186 C   0  0  0  0  0  0  0  0  0  0  0  0
    0.4474   -0.4948   -2.4887 F   0  0  0  0  0  0  0  0  0  0  0  0
   -1.6388   -0.4971    1.0613 C   0  0  0  0  0  0  0  0  0  0  0  0
   -0.3063   -0.0784    1.0314 C   0  0  0  0  0  0  0  0  0  0  0  0
    0.2532    0.3351    2.1790 F   0  0  0  0  0  0  0  0  0  0  0  0
    0.4359   -0.0800   -0.1529 C   0  0  0  0  0  0  0  0  0  0  0  0
    1.7701    0.3640   -0.1958 N   0  0  0  0  0  0  0  0  0  0  0  0
    2.5251   -0.5008    0.3023 N   0  0  0  0  0  0  0  0  0  0  0  0
    3.8603   -0.0613    0.2470 C   0  0  0  0  0  0  0  0  0  0  0  0
    4.3606    0.8957    1.1363 C   0  0  0  0  0  0  0  0  0  0  0  0
    3.5590    1.4382    2.0658 F   0  0  0  0  0  0  0  0  0  0  0  0
    5.6934    1.3090    1.0903 C   0  0  0  0  0  0  0  0  0  0  0  0
    6.5593    0.7569    0.1475 C   0  0  0  0  0  0  0  0  0  0  0  0
    6.0855   -0.2091   -0.7389 C   0  0  0  0  0  0  0  0  0  0  0  0
    4.7500   -0.6115   -0.6796 C   0  0  0  0  0  0  0  0  0  0  0  0
    4.3296   -1.5520   -1.5399 F   0  0  0  0  0  0  0  0  0  0  0  0
   -4.9070    1.2617    2.4211 H   0  0  0  0  0  0  0  0  0  0  0  0
   -5.7613   -0.7320   -0.3454 H   0  0  0  0  0  0  0  0  0  0  0  0
   -3.7505    0.8063   -1.8073 H   0  0  0  0  0  0  0  0  0  0  0  0
   -5.3453    0.9678   -1.9092 H   0  0  0  0  0  0  0  0  0  0  0  0
   -3.8342   -2.1993   -0.8082 H   0  0  0  0  0  0  0  0  0  0  0  0
   -3.9293   -1.8189    0.8888 H   0  0  0  0  0  0  0  0  0  0  0  0
   -1.9970   -1.2376   -2.2421 H   0  0  0  0  0  0  0  0  0  0  0  0
   -2.1642   -0.4864    2.0131 H   0  0  0  0  0  0  0  0  0  0  0  0
    6.0436    2.0581    1.7945 H   0  0  0  0  0  0  0  0  0  0  0  0
    7.5985    1.0746    0.1067 H   0  0  0  0  0  0  0  0  0  0  0  0
    6.7449   -0.6563   -1.4772 H   0  0  0  0  0  0  0  0  0  0  0  0
  1  2  2  0
  2  3  1  0
  2  4  1  0
  4  5  1  0
  4  6  1  0
  6  7  1  0
  7  8  2  0
  8  9  1  0
  9 10  1  0
  7 11  1  0
 11 12  2  0
 12 13  1  0
 12 14  1  0
 14 15  1  0
 15 16  2  0
 16 17  1  0
 17 18  2  0
 18 19  1  0
 18 20  1  0
 20 21  2  0
 21 22  1  0
 22 23  2  0
 23 24  1  0
 14  9  2  0
 23 17  1  0
  3 25  1  0
  4 26  1  6
  5 27  1  0
  5 28  1  0
  6 29  1  0
  6 30  1  0
  8 31  1  0
 11 32  1  0
 20 33  1  0
 21 34  1  0
 22 35  1  0
M  END
>  <Name>  (109) 
UA89_F4AzoF

>  <canvasUID>  (109) 
113

>  <MW>  (109) 
341.2604

>  <AlogP>  (109) 
4.04

>  <HBA>  (109) 
2

>  <HBD>  (109) 
0

>  <RB>  (109) 
5

>  <PSA>  (109) 
88.04

>  <Estate>  (109) 
82.169

>  <Polar>  (109) 
35.897

>  <Chirality>  (109) 
[(3, 'S')]

$$$$

     RDKit          3D

 35 37  0  0  0  0  0  0  0  0999 V2000
   -5.1343    1.3645    1.9145 O   0  0  0  0  0  0  0  0  0  0  0  0
   -5.0680    0.4182    1.1475 C   0  0  0  0  0  0  0  0  0  0  0  0
   -6.1613   -0.3532    0.9387 O   0  0  0  0  0  0  0  0  0  0  0  0
   -3.8297   -0.0667    0.3774 C   0  0  1  0  0  0  0  0  0  0  0  0
   -4.2413   -0.8527   -0.8194 N   0  0  0  0  0  0  0  0  0  0  0  0
   -2.9508    1.1357   -0.0098 C   0  0  0  0  0  0  0  0  0  0  0  0
   -1.5445    0.7461   -0.4074 C   0  0  0  0  0  0  0  0  0  0  0  0
   -0.5236    0.7104    0.5513 C   0  0  0  0  0  0  0  0  0  0  0  0
   -1.2426    0.4021   -1.7319 C   0  0  0  0  0  0  0  0  0  0  0  0
    0.0558    0.0305   -2.0975 C   0  0  0  0  0  0  0  0  0  0  0  0
    1.0722   -0.0239   -1.1413 C   0  0  0  0  0  0  0  0  0  0  0  0
    0.7739    0.3370    0.1811 C   0  0  0  0  0  0  0  0  0  0  0  0
    2.3887   -0.3437   -1.5101 N   0  0  0  0  0  0  0  0  0  0  0  0
    3.4302   -0.4611   -0.5761 C   0  0  0  0  0  0  0  0  0  0  0  0
    3.2183   -0.1167    0.7684 C   0  0  0  0  0  0  0  0  0  0  0  0
    1.8593    0.3034    1.1940 C   0  0  0  0  0  0  0  0  0  0  0  0
    1.6363    0.6099    2.3612 O   0  0  0  0  0  0  0  0  0  0  0  0
    4.2616   -0.1762    1.6985 C   0  0  0  0  0  0  0  0  0  0  0  0
    5.5337   -0.5673    1.2836 C   0  0  0  0  0  0  0  0  0  0  0  0
    5.7610   -0.8901   -0.0546 C   0  0  0  0  0  0  0  0  0  0  0  0
    4.7165   -0.8294   -0.9823 C   0  0  0  0  0  0  0  0  0  0  0  0
   -6.8445    0.0517    1.5145 H   0  0  0  0  0  0  0  0  0  0  0  0
   -3.2869   -0.7388    1.0525 H   0  0  0  0  0  0  0  0  0  0  0  0
   -4.7953   -0.2492   -1.4274 H   0  0  0  0  0  0  0  0  0  0  0  0
   -4.9075   -1.5589   -0.4924 H   0  0  0  0  0  0  0  0  0  0  0  0
   -2.8834    1.8448    0.8260 H   0  0  0  0  0  0  0  0  0  0  0  0
   -3.4171    1.7083   -0.8233 H   0  0  0  0  0  0  0  0  0  0  0  0
   -0.7291    0.9754    1.5869 H   0  0  0  0  0  0  0  0  0  0  0  0
   -2.0233    0.4159   -2.4901 H   0  0  0  0  0  0  0  0  0  0  0  0
    0.2597   -0.2179   -3.1354 H   0  0  0  0  0  0  0  0  0  0  0  0
    2.5087   -0.8276   -2.3907 H   0  0  0  0  0  0  0  0  0  0  0  0
    4.0832    0.0848    2.7392 H   0  0  0  0  0  0  0  0  0  0  0  0
    6.3483   -0.6130    2.0023 H   0  0  0  0  0  0  0  0  0  0  0  0
    6.7569   -1.1837   -0.3785 H   0  0  0  0  0  0  0  0  0  0  0  0
    4.9187   -1.0689   -2.0226 H   0  0  0  0  0  0  0  0  0  0  0  0
  1  2  2  0
  2  3  1  0
  2  4  1  0
  4  5  1  0
  4  6  1  0
  6  7  1  0
  7  8  2  0
  7  9  1  0
  9 10  2  0
 10 11  1  0
 11 12  2  0
 11 13  1  0
 13 14  1  0
 14 15  2  0
 15 16  1  0
 16 17  2  0
 15 18  1  0
 18 19  2  0
 19 20  1  0
 20 21  2  0
 12  8  1  0
 16 12  1  0
 21 14  1  0
  3 22  1  0
  4 23  1  1
  5 24  1  0
  5 25  1  0
  6 26  1  0
  6 27  1  0
  8 28  1  0
  9 29  1  0
 10 30  1  0
 13 31  1  0
 18 32  1  0
 19 33  1  0
 20 34  1  0
 21 35  1  0
M  END
>  <Name>  (110) 
UA90_AcdA

>  <canvasUID>  (110) 
114

>  <MW>  (110) 
282.294

>  <AlogP>  (110) 
1.9782

>  <HBA>  (110) 
1

>  <HBD>  (110) 
1

>  <RB>  (110) 
3

>  <PSA>  (110) 
96.18

>  <Estate>  (110) 
56.002

>  <Polar>  (110) 
37.309

>  <Chirality>  (110) 
[(3, 'S')]

$$$$

     RDKit          3D

 44 44  0  0  0  0  0  0  0  0999 V2000
   -7.6440   -0.9591    0.2463 O   0  0  0  0  0  0  0  0  0  0  0  0
   -6.4946   -0.6942    0.5669 C   0  0  0  0  0  0  0  0  0  0  0  0
   -6.2671    0.0540    1.6637 O   0  0  0  0  0  0  0  0  0  0  0  0
   -5.2081   -1.2173   -0.0960 C   0  0  1  0  0  0  0  0  0  0  0  0
   -5.5707   -2.0752   -1.2495 N   0  0  0  0  0  0  0  0  0  0  0  0
   -4.3018   -0.0999   -0.6319 C   0  0  0  0  0  0  0  0  0  0  0  0
   -3.5736    0.7541    0.4150 C   0  0  0  0  0  0  0  0  0  0  0  0
   -2.7227   -0.0130    1.4337 C   0  0  0  0  0  0  0  0  0  0  0  0
   -1.6365   -0.8999    0.8241 C   0  0  0  0  0  0  0  0  0  0  0  0
   -0.6881   -0.1543    0.0330 N   0  0  0  0  0  0  0  0  0  0  0  0
    0.3613    0.5227    0.5756 C   0  0  0  0  0  0  0  0  0  0  0  0
    0.6512    0.5388    1.7618 O   0  0  0  0  0  0  0  0  0  0  0  0
    1.0153    1.1765   -0.4113 O   0  0  0  0  0  0  0  0  0  0  0  0
    2.1669    1.9226   -0.0020 C   0  0  0  0  0  0  0  0  0  0  0  0
    3.4115    1.1223   -0.2855 C   0  0  0  0  0  0  0  0  0  0  0  0
    4.0032    1.1462   -1.5537 C   0  0  0  0  0  0  0  0  0  0  0  0
    5.1483    0.3873   -1.8165 C   0  0  0  0  0  0  0  0  0  0  0  0
    3.9702    0.3058    0.7051 C   0  0  0  0  0  0  0  0  0  0  0  0
    5.1148   -0.4529    0.4396 C   0  0  0  0  0  0  0  0  0  0  0  0
    5.7255   -0.4088   -0.8194 C   0  0  0  0  0  0  0  0  0  0  0  0
    6.9104   -1.2121   -1.1509 C   0  0  0  0  0  0  0  0  0  0  0  0
    7.8860   -1.5243   -0.2882 C   0  0  0  0  0  0  0  0  0  0  0  0
   -7.1677    0.2815    1.9781 H   0  0  0  0  0  0  0  0  0  0  0  0
   -4.6979   -1.8523    0.6349 H   0  0  0  0  0  0  0  0  0  0  0  0
   -4.8130   -2.7251   -1.4479 H   0  0  0  0  0  0  0  0  0  0  0  0
   -6.3871   -2.6376   -0.9981 H   0  0  0  0  0  0  0  0  0  0  0  0
   -3.5424   -0.5325   -1.2968 H   0  0  0  0  0  0  0  0  0  0  0  0
   -4.8963    0.5788   -1.2588 H   0  0  0  0  0  0  0  0  0  0  0  0
   -2.9324    1.4682   -0.1178 H   0  0  0  0  0  0  0  0  0  0  0  0
   -4.2975    1.3713    0.9580 H   0  0  0  0  0  0  0  0  0  0  0  0
   -3.3709   -0.6293    2.0666 H   0  0  0  0  0  0  0  0  0  0  0  0
   -2.2545    0.7203    2.1024 H   0  0  0  0  0  0  0  0  0  0  0  0
   -1.0938   -1.4081    1.6295 H   0  0  0  0  0  0  0  0  0  0  0  0
   -2.0683   -1.6719    0.1804 H   0  0  0  0  0  0  0  0  0  0  0  0
   -0.8295   -0.0280   -0.9595 H   0  0  0  0  0  0  0  0  0  0  0  0
    2.1233    2.2370    1.0482 H   0  0  0  0  0  0  0  0  0  0  0  0
    2.1820    2.8486   -0.5890 H   0  0  0  0  0  0  0  0  0  0  0  0
    3.5748    1.7534   -2.3479 H   0  0  0  0  0  0  0  0  0  0  0  0
    5.5883    0.4286   -2.8103 H   0  0  0  0  0  0  0  0  0  0  0  0
    3.5101    0.2473    1.6905 H   0  0  0  0  0  0  0  0  0  0  0  0
    5.5119   -1.0882    1.2273 H   0  0  0  0  0  0  0  0  0  0  0  0
    6.9873   -1.5500   -2.1818 H   0  0  0  0  0  0  0  0  0  0  0  0
    7.8805   -1.1940    0.7451 H   0  0  0  0  0  0  0  0  0  0  0  0
    8.7360   -2.1163   -0.6130 H   0  0  0  0  0  0  0  0  0  0  0  0
  1  2  2  0
  2  3  1  0
  2  4  1  0
  4  5  1  0
  4  6  1  0
  6  7  1  0
  7  8  1  0
  8  9  1  0
  9 10  1  0
 10 11  1  0
 11 12  2  0
 11 13  1  0
 13 14  1  0
 14 15  1  0
 15 16  2  0
 16 17  1  0
 15 18  1  0
 18 19  2  0
 19 20  1  0
 20 21  1  0
 21 22  2  3
 20 17  2  0
  3 23  1  0
  4 24  1  1
  5 25  1  0
  5 26  1  0
  6 27  1  0
  6 28  1  0
  7 29  1  0
  7 30  1  0
  8 31  1  0
  8 32  1  0
  9 33  1  0
  9 34  1  0
 10 35  1  0
 14 36  1  0
 14 37  1  0
 16 38  1  0
 17 39  1  0
 18 40  1  0
 19 41  1  0
 21 42  1  0
 22 43  1  0
 22 44  1  0
M  END
>  <Name>  (111) 
UA91_StyrK

>  <canvasUID>  (111) 
115

>  <MW>  (111) 
306.3569

>  <AlogP>  (111) 
2.2078

>  <HBA>  (111) 
2

>  <HBD>  (111) 
1

>  <RB>  (111) 
10

>  <PSA>  (111) 
101.65

>  <Estate>  (111) 
59.501

>  <Polar>  (111) 
36.004

>  <Chirality>  (111) 
[(3, 'S')]

$$$$

     RDKit          3D

 28 28  0  0  0  0  0  0  0  0999 V2000
   -4.9714    0.4869    0.3277 O   0  0  0  0  0  0  0  0  0  0  0  0
   -3.8304    0.6963    0.7127 C   0  0  0  0  0  0  0  0  0  0  0  0
   -3.5473    1.7930    1.4422 O   0  0  0  0  0  0  0  0  0  0  0  0
   -2.6119   -0.1986    0.4674 C   0  0  1  0  0  0  0  0  0  0  0  0
   -3.0644   -1.5128   -0.0657 N   0  0  0  0  0  0  0  0  0  0  0  0
   -1.6508    0.5038   -0.5063 C   0  0  0  0  0  0  0  0  0  0  0  0
   -0.2339   -0.0177   -0.4220 C   0  0  0  0  0  0  0  0  0  0  0  0
    0.7241    0.6563    0.3520 C   0  0  0  0  0  0  0  0  0  0  0  0
    2.0418    0.1852    0.4479 C   0  0  0  0  0  0  0  0  0  0  0  0
    3.1745    1.1187    1.4739 S   0  0  0  0  0  0  0  0  0  0  0  0
    4.4666    1.4872    0.2581 C   0  0  0  0  0  0  0  0  0  0  0  0
    2.3845   -0.9962   -0.2233 C   0  0  0  0  0  0  0  0  0  0  0  0
    3.6509   -1.5058   -0.1191 O   0  0  0  0  0  0  0  0  0  0  0  0
    1.4403   -1.6783   -0.9927 C   0  0  0  0  0  0  0  0  0  0  0  0
    0.1373   -1.1885   -1.0918 C   0  0  0  0  0  0  0  0  0  0  0  0
   -4.4090    2.2514    1.5375 H   0  0  0  0  0  0  0  0  0  0  0  0
   -2.1360   -0.3801    1.4385 H   0  0  0  0  0  0  0  0  0  0  0  0
   -3.6828   -1.9377    0.6282 H   0  0  0  0  0  0  0  0  0  0  0  0
   -3.6769   -1.3327   -0.8655 H   0  0  0  0  0  0  0  0  0  0  0  0
   -2.0100    0.4113   -1.5407 H   0  0  0  0  0  0  0  0  0  0  0  0
   -1.6335    1.5856   -0.3180 H   0  0  0  0  0  0  0  0  0  0  0  0
    0.4401    1.5614    0.8865 H   0  0  0  0  0  0  0  0  0  0  0  0
    5.1396    2.2404    0.6773 H   0  0  0  0  0  0  0  0  0  0  0  0
    4.0311    1.8893   -0.6609 H   0  0  0  0  0  0  0  0  0  0  0  0
    5.0586    0.5996    0.0252 H   0  0  0  0  0  0  0  0  0  0  0  0
    3.6678   -2.3884   -0.5228 H   0  0  0  0  0  0  0  0  0  0  0  0
    1.6963   -2.5942   -1.5164 H   0  0  0  0  0  0  0  0  0  0  0  0
   -0.5952   -1.7355   -1.6826 H   0  0  0  0  0  0  0  0  0  0  0  0
  1  2  2  0
  2  3  1  0
  2  4  1  0
  4  5  1  0
  4  6  1  0
  6  7  1  0
  7  8  2  0
  8  9  1  0
  9 10  1  0
 10 11  1  0
  9 12  2  0
 12 13  1  0
 12 14  1  0
 14 15  2  0
 15  7  1  0
  3 16  1  0
  4 17  1  1
  5 18  1  0
  5 19  1  0
  6 20  1  0
  6 21  1  0
  8 22  1  0
 11 23  1  0
 11 24  1  0
 11 25  1  0
 13 26  1  0
 14 27  1  0
 15 28  1  0
M  END
>  <Name>  (112) 
UA92_MtY

>  <canvasUID>  (112) 
116

>  <MW>  (112) 
227.2801

>  <AlogP>  (112) 
1.123

>  <HBA>  (112) 
1

>  <HBD>  (112) 
1

>  <RB>  (112) 
4

>  <PSA>  (112) 
108.85

>  <Estate>  (112) 
43.334

>  <Polar>  (112) 
26.749

>  <Chirality>  (112) 
[(3, 'S')]

$$$$

     RDKit          3D

 30 30  0  0  0  0  0  0  0  0999 V2000
    4.5116    1.2628    1.2644 O   0  0  0  0  0  0  0  0  0  0  0  0
    4.3936    0.3691    0.4410 C   0  0  0  0  0  0  0  0  0  0  0  0
    5.4151    0.0794   -0.3982 O   0  0  0  0  0  0  0  0  0  0  0  0
    3.1376   -0.4608    0.1615 C   0  0  1  0  0  0  0  0  0  0  0  0
    3.5055   -1.8682   -0.1118 N   0  0  0  0  0  0  0  0  0  0  0  0
    2.1711   -0.3544    1.3529 C   0  0  0  0  0  0  0  0  0  0  0  0
    0.5644   -1.1893    1.0419 S   0  0  0  0  0  0  0  0  0  0  0  0
   -0.2803    0.1184    0.0793 C   0  0  0  0  0  0  0  0  0  0  0  0
   -1.4682   -0.4801   -0.6393 C   0  0  0  0  0  0  0  0  0  0  0  0
   -1.3982   -1.2191   -1.6118 O   0  0  0  0  0  0  0  0  0  0  0  0
   -0.8977    1.1854    0.9716 C   0  0  0  0  0  0  0  0  0  0  0  0
   -2.3727    0.9189    0.9007 C   0  0  0  0  0  0  0  0  0  0  0  0
   -3.2092    1.5354    1.5438 O   0  0  0  0  0  0  0  0  0  0  0  0
   -2.6115   -0.0498   -0.0284 N   0  0  0  0  0  0  0  0  0  0  0  0
   -3.9416   -0.4585   -0.4372 C   0  0  0  0  0  0  0  0  0  0  0  0
   -4.4861    0.4277   -1.5466 C   0  0  0  0  0  0  0  0  0  0  0  0
    6.1454    0.6582   -0.0953 H   0  0  0  0  0  0  0  0  0  0  0  0
    2.6807   -0.0312   -0.7377 H   0  0  0  0  0  0  0  0  0  0  0  0
    2.6651   -2.3837   -0.3775 H   0  0  0  0  0  0  0  0  0  0  0  0
    4.1393   -1.8867   -0.9127 H   0  0  0  0  0  0  0  0  0  0  0  0
    2.6161   -0.8225    2.2391 H   0  0  0  0  0  0  0  0  0  0  0  0
    1.9785    0.6909    1.6178 H   0  0  0  0  0  0  0  0  0  0  0  0
    0.3979    0.5576   -0.6579 H   0  0  0  0  0  0  0  0  0  0  0  0
   -0.7142    2.1832    0.5580 H   0  0  0  0  0  0  0  0  0  0  0  0
   -0.5551    1.1615    2.0099 H   0  0  0  0  0  0  0  0  0  0  0  0
   -4.6082   -0.4101    0.4307 H   0  0  0  0  0  0  0  0  0  0  0  0
   -3.9007   -1.4967   -0.7840 H   0  0  0  0  0  0  0  0  0  0  0  0
   -5.4887    0.1003   -1.8379 H   0  0  0  0  0  0  0  0  0  0  0  0
   -4.5469    1.4718   -1.2223 H   0  0  0  0  0  0  0  0  0  0  0  0
   -3.8425    0.3906   -2.4317 H   0  0  0  0  0  0  0  0  0  0  0  0
  1  2  2  0
  2  3  1  0
  2  4  1  0
  4  5  1  0
  4  6  1  0
  6  7  1  0
  7  8  1  0
  8  9  1  0
  9 10  2  0
  8 11  1  0
 11 12  1  0
 12 13  2  0
 12 14  1  0
 14 15  1  0
 15 16  1  0
 14  9  1  0
  3 17  1  0
  4 18  1  6
  5 19  1  0
  5 20  1  0
  6 21  1  0
  6 22  1  0
  8 23  1  0
 11 24  1  0
 11 25  1  0
 15 26  1  0
 15 27  1  0
 16 28  1  0
 16 29  1  0
 16 30  1  0
M  END
>  <Name>  (113) 
UA93_NEMmalC

>  <canvasUID>  (113) 
117

>  <MW>  (113) 
246.2835

>  <AlogP>  (113) 
-0.9741

>  <HBA>  (113) 
3

>  <HBD>  (113) 
0

>  <RB>  (113) 
5

>  <PSA>  (113) 
126

>  <Estate>  (113) 
50

>  <Polar>  (113) 
23.112

>  <Chirality>  (113) 
[(3, 'R')]

$$$$

     RDKit          3D

 42 42  0  0  0  0  0  0  0  0999 V2000
    4.9110   -0.6116   -2.5694 O   0  0  0  0  0  0  0  0  0  0  0  0
    4.9633   -0.8393   -1.3720 C   0  0  0  0  0  0  0  0  0  0  0  0
    5.9298   -1.6411   -0.8701 O   0  0  0  0  0  0  0  0  0  0  0  0
    3.9811   -0.3340   -0.3065 C   0  0  1  0  0  0  0  0  0  0  0  0
    4.5709   -0.4338    1.0544 N   0  0  0  0  0  0  0  0  0  0  0  0
    3.5520    1.0974   -0.6777 C   0  0  0  0  0  0  0  0  0  0  0  0
    2.6494    2.0693    0.6011 S   0  0  0  0  0  0  0  0  0  0  0  0
    1.3905    0.8650    1.1502 C   0  0  0  0  0  0  0  0  0  0  0  0
    0.4093    0.5979    0.0317 C   0  0  0  0  0  0  0  0  0  0  0  0
    0.6070   -0.1111   -0.9451 O   0  0  0  0  0  0  0  0  0  0  0  0
    0.5113    1.4654    2.2461 C   0  0  0  0  0  0  0  0  0  0  0  0
   -0.7638    1.8126    1.5375 C   0  0  0  0  0  0  0  0  0  0  0  0
   -1.7125    2.4035    2.0292 O   0  0  0  0  0  0  0  0  0  0  0  0
   -0.7530    1.2639    0.2908 N   0  0  0  0  0  0  0  0  0  0  0  0
   -1.8157    1.4555   -0.6793 C   0  0  0  0  0  0  0  0  0  0  0  0
   -3.1986    0.8961   -0.2904 C   0  0  0  0  0  0  0  0  0  0  0  0
   -3.3420   -0.6482   -0.2770 N   0  0  0  0  0  4  0  0  0  0  0  0
   -2.6312   -1.2751    0.9128 C   0  0  0  0  0  0  0  0  0  0  0  0
   -4.8391   -0.9637   -0.1402 C   0  0  0  0  0  0  0  0  0  0  0  0
   -2.8392   -1.2828   -1.5694 C   0  0  0  0  0  0  0  0  0  0  0  0
    6.4680   -1.8950   -1.6512 H   0  0  0  0  0  0  0  0  0  0  0  0
    3.1213   -1.0115   -0.3408 H   0  0  0  0  0  0  0  0  0  0  0  0
    5.1151   -1.3043    1.0819 H   0  0  0  0  0  0  0  0  0  0  0  0
    5.2751    0.3003    1.1599 H   0  0  0  0  0  0  0  0  0  0  0  0
    2.9376    1.0824   -1.5850 H   0  0  0  0  0  0  0  0  0  0  0  0
    4.4388    1.6937   -0.9257 H   0  0  0  0  0  0  0  0  0  0  0  0
    1.8443   -0.0622    1.5066 H   0  0  0  0  0  0  0  0  0  0  0  0
    0.2760    0.7090    3.0034 H   0  0  0  0  0  0  0  0  0  0  0  0
    0.9351    2.3444    2.7396 H   0  0  0  0  0  0  0  0  0  0  0  0
   -1.9281    2.5419   -0.7890 H   0  0  0  0  0  0  0  0  0  0  0  0
   -1.5002    1.0799   -1.6576 H   0  0  0  0  0  0  0  0  0  0  0  0
   -3.9247    1.2551   -1.0304 H   0  0  0  0  0  0  0  0  0  0  0  0
   -3.5229    1.2493    0.6939 H   0  0  0  0  0  0  0  0  0  0  0  0
   -2.9433   -0.7529    1.8216 H   0  0  0  0  0  0  0  0  0  0  0  0
   -1.5536   -1.1972    0.7683 H   0  0  0  0  0  0  0  0  0  0  0  0
   -2.9109   -2.3320    0.9663 H   0  0  0  0  0  0  0  0  0  0  0  0
   -5.3611   -0.5458   -1.0061 H   0  0  0  0  0  0  0  0  0  0  0  0
   -5.2028   -0.5101    0.7866 H   0  0  0  0  0  0  0  0  0  0  0  0
   -4.9654   -2.0502   -0.1103 H   0  0  0  0  0  0  0  0  0  0  0  0
   -1.7544   -1.1740   -1.6204 H   0  0  0  0  0  0  0  0  0  0  0  0
   -3.1017   -2.3451   -1.5571 H   0  0  0  0  0  0  0  0  0  0  0  0
   -3.3225   -0.7786   -2.4110 H   0  0  0  0  0  0  0  0  0  0  0  0
  1  2  2  0
  2  3  1  0
  2  4  1  0
  4  5  1  0
  4  6  1  0
  6  7  1  0
  7  8  1  0
  8  9  1  0
  9 10  2  0
  8 11  1  0
 11 12  1  0
 12 13  2  0
 12 14  1  0
 14 15  1  0
 15 16  1  0
 16 17  1  0
 17 18  1  0
 17 19  1  0
 17 20  1  0
 14  9  1  0
  3 21  1  0
  4 22  1  1
  5 23  1  0
  5 24  1  0
  6 25  1  0
  6 26  1  0
  8 27  1  0
 11 28  1  0
 11 29  1  0
 15 30  1  0
 15 31  1  0
 16 32  1  0
 16 33  1  0
 18 34  1  0
 18 35  1  0
 18 36  1  0
 19 37  1  0
 19 38  1  0
 19 39  1  0
 20 40  1  0
 20 41  1  0
 20 42  1  0
M  CHG  1  17   1
M  END
>  <Name>  (114) 
UA94_TMAmalC

>  <canvasUID>  (114) 
118

>  <MW>  (114) 
304.3858

>  <AlogP>  (114) 
-2.539

>  <HBA>  (114) 
3

>  <HBD>  (114) 
0

>  <RB>  (114) 
7

>  <PSA>  (114) 
126

>  <Estate>  (114) 
57

>  <Polar>  (114) 
30.355

>  <Chirality>  (114) 
[(3, 'R')]

$$$$

     RDKit          3D

 51 51  0  0  0  0  0  0  0  0999 V2000
    8.1669    0.0404    1.0869 O   0  0  0  0  0  0  0  0  0  0  0  0
    7.5739   -0.1592    0.0378 C   0  0  0  0  0  0  0  0  0  0  0  0
    7.9631    0.4540   -1.0978 O   0  0  0  0  0  0  0  0  0  0  0  0
    6.3232   -1.0162   -0.1470 C   0  0  1  0  0  0  0  0  0  0  0  0
    6.3823   -2.1852    0.7600 N   0  0  0  0  0  0  0  0  0  0  0  0
    5.1053   -0.1132    0.1080 C   0  0  0  0  0  0  0  0  0  0  0  0
    3.5240   -1.0300   -0.0526 S   0  0  0  0  0  0  0  0  0  0  0  0
    2.3581    0.3212    0.3402 C   0  0  0  0  0  0  0  0  0  0  0  0
    0.9851   -0.2768    0.5570 C   0  0  0  0  0  0  0  0  0  0  0  0
    0.5782   -0.8268    1.5699 O   0  0  0  0  0  0  0  0  0  0  0  0
    2.1362    1.2714   -0.8336 C   0  0  0  0  0  0  0  0  0  0  0  0
    0.7719    0.9074   -1.3469 C   0  0  0  0  0  0  0  0  0  0  0  0
    0.1866    1.4682   -2.2607 O   0  0  0  0  0  0  0  0  0  0  0  0
    0.2344   -0.0648   -0.5618 N   0  0  0  0  0  0  0  0  0  0  0  0
   -1.1245   -0.5540   -0.7114 C   0  0  0  0  0  0  0  0  0  0  0  0
   -2.1428    0.3654   -0.0102 C   0  0  0  0  0  0  0  0  0  0  0  0
   -3.6270   -0.0753   -0.1421 N   0  0  0  0  0  4  0  0  0  0  0  0
   -4.6022    0.9214    0.5648 C   0  0  0  0  0  0  0  0  0  0  0  0
   -4.0297    1.6374    1.7787 C   0  0  0  0  0  0  0  0  0  0  0  0
   -4.0584   -0.1574   -1.6480 C   0  0  0  0  0  0  0  0  0  0  0  0
   -3.7092    1.0738   -2.4732 C   0  0  0  0  0  0  0  0  0  0  0  0
   -3.8574   -1.5128    0.4216 C   0  0  0  0  0  0  0  0  0  0  0  0
   -3.5335   -1.6810    1.8938 C   0  0  0  0  0  0  0  0  0  0  0  0
    8.7914    0.9179   -0.8472 H   0  0  0  0  0  0  0  0  0  0  0  0
    6.3146   -1.3972   -1.1749 H   0  0  0  0  0  0  0  0  0  0  0  0
    6.6276   -1.8668    1.7002 H   0  0  0  0  0  0  0  0  0  0  0  0
    5.4499   -2.5957    0.8269 H   0  0  0  0  0  0  0  0  0  0  0  0
    5.1035    0.7176   -0.6058 H   0  0  0  0  0  0  0  0  0  0  0  0
    5.1538    0.3141    1.1165 H   0  0  0  0  0  0  0  0  0  0  0  0
    2.6734    0.8553    1.2416 H   0  0  0  0  0  0  0  0  0  0  0  0
    2.8787    1.1902   -1.6318 H   0  0  0  0  0  0  0  0  0  0  0  0
    2.0985    2.3078   -0.4806 H   0  0  0  0  0  0  0  0  0  0  0  0
   -1.1577   -1.5600   -0.2819 H   0  0  0  0  0  0  0  0  0  0  0  0
   -1.3351   -0.6320   -1.7817 H   0  0  0  0  0  0  0  0  0  0  0  0
   -2.0780    1.3889   -0.3957 H   0  0  0  0  0  0  0  0  0  0  0  0
   -1.9072    0.4109    1.0567 H   0  0  0  0  0  0  0  0  0  0  0  0
   -5.5028    0.3569    0.8308 H   0  0  0  0  0  0  0  0  0  0  0  0
   -4.8991    1.6779   -0.1649 H   0  0  0  0  0  0  0  0  0  0  0  0
   -3.6296    0.9593    2.5336 H   0  0  0  0  0  0  0  0  0  0  0  0
   -3.2418    2.3413    1.4926 H   0  0  0  0  0  0  0  0  0  0  0  0
   -4.8197    2.2267    2.2570 H   0  0  0  0  0  0  0  0  0  0  0  0
   -3.5748   -1.0411   -2.0783 H   0  0  0  0  0  0  0  0  0  0  0  0
   -5.1418   -0.3266   -1.6520 H   0  0  0  0  0  0  0  0  0  0  0  0
   -2.6301    1.1903   -2.6000 H   0  0  0  0  0  0  0  0  0  0  0  0
   -4.1055    2.0010   -2.0540 H   0  0  0  0  0  0  0  0  0  0  0  0
   -4.1334    0.9654   -3.4775 H   0  0  0  0  0  0  0  0  0  0  0  0
   -3.2506   -2.1985   -0.1783 H   0  0  0  0  0  0  0  0  0  0  0  0
   -4.9103   -1.7601    0.2400 H   0  0  0  0  0  0  0  0  0  0  0  0
   -4.2349   -1.1329    2.5275 H   0  0  0  0  0  0  0  0  0  0  0  0
   -3.6307   -2.7381    2.1651 H   0  0  0  0  0  0  0  0  0  0  0  0
   -2.5128   -1.3804    2.1403 H   0  0  0  0  0  0  0  0  0  0  0  0
  1  2  2  0
  2  3  1  0
  2  4  1  0
  4  5  1  0
  4  6  1  0
  6  7  1  0
  7  8  1  0
  8  9  1  0
  9 10  2  0
  8 11  1  0
 11 12  1  0
 12 13  2  0
 12 14  1  0
 14 15  1  0
 15 16  1  0
 16 17  1  0
 17 18  1  0
 18 19  1  0
 17 20  1  0
 20 21  1  0
 17 22  1  0
 22 23  1  0
 14  9  1  0
  3 24  1  0
  4 25  1  6
  5 26  1  0
  5 27  1  0
  6 28  1  0
  6 29  1  0
  8 30  1  0
 11 31  1  0
 11 32  1  0
 15 33  1  0
 15 34  1  0
 16 35  1  0
 16 36  1  0
 18 37  1  0
 18 38  1  0
 19 39  1  0
 19 40  1  0
 19 41  1  0
 20 42  1  0
 20 43  1  0
 21 44  1  0
 21 45  1  0
 21 46  1  0
 22 47  1  0
 22 48  1  0
 23 49  1  0
 23 50  1  0
 23 51  1  0
M  CHG  1  17   1
M  END
>  <Name>  (115) 
UA95_TEAmalC

>  <canvasUID>  (115) 
119

>  <MW>  (115) 
346.4655

>  <AlogP>  (115) 
-1.4926

>  <HBA>  (115) 
3

>  <HBD>  (115) 
0

>  <RB>  (115) 
10

>  <PSA>  (115) 
126

>  <Estate>  (115) 
61.5

>  <Polar>  (115) 
35.86

>  <Chirality>  (115) 
[(3, 'R')]

$$$$

     RDKit          3D

 69 69  0  0  0  0  0  0  0  0999 V2000
    8.1336   -2.3130    0.9332 O   0  0  0  0  0  0  0  0  0  0  0  0
    8.1610   -1.1089    0.7333 C   0  0  0  0  0  0  0  0  0  0  0  0
    9.3019   -0.5113    0.3228 O   0  0  0  0  0  0  0  0  0  0  0  0
    7.0044   -0.1284    0.9562 C   0  0  1  0  0  0  0  0  0  0  0  0
    7.2822    1.2114    0.3695 N   0  0  0  0  0  0  0  0  0  0  0  0
    5.6790   -0.7015    0.4298 C   0  0  0  0  0  0  0  0  0  0  0  0
    5.6130   -0.8146   -1.4089 S   0  0  0  0  0  0  0  0  0  0  0  0
    3.9541   -0.1623   -1.7610 C   0  0  0  0  0  0  0  0  0  0  0  0
    2.8649   -0.7763   -0.9109 C   0  0  0  0  0  0  0  0  0  0  0  0
    2.5827   -1.9607   -0.8145 O   0  0  0  0  0  0  0  0  0  0  0  0
    3.8114    1.3415   -1.5396 C   0  0  0  0  0  0  0  0  0  0  0  0
    2.5032    1.4537   -0.8159 C   0  0  0  0  0  0  0  0  0  0  0  0
    1.8212    2.4615   -0.7079 O   0  0  0  0  0  0  0  0  0  0  0  0
    2.1558    0.2311   -0.3230 N   0  0  0  0  0  0  0  0  0  0  0  0
    0.9382    0.0149    0.4370 C   0  0  0  0  0  0  0  0  0  0  0  0
   -0.2831   -0.1550   -0.4872 C   0  0  0  0  0  0  0  0  0  0  0  0
   -1.6676    0.1752    0.1811 N   0  0  0  0  0  4  0  0  0  0  0  0
   -1.7914   -0.5204    1.5685 C   0  0  0  0  0  0  0  0  0  0  0  0
   -1.6176   -2.0451    1.5480 C   0  0  0  0  0  0  0  0  0  0  0  0
   -2.9431   -2.7854    1.7542 C   0  0  0  0  0  0  0  0  0  0  0  0
   -2.7423   -4.2927    1.7619 C   0  0  0  0  0  0  0  0  0  0  0  0
   -1.7198    1.7305    0.3762 C   0  0  0  0  0  0  0  0  0  0  0  0
   -3.0971    2.3846    0.5594 C   0  0  0  0  0  0  0  0  0  0  0  0
   -3.8135    2.1137    1.8799 C   0  0  0  0  0  0  0  0  0  0  0  0
   -4.9349    3.1161    2.1210 C   0  0  0  0  0  0  0  0  0  0  0  0
   -2.8038   -0.3301   -0.7499 C   0  0  0  0  0  0  0  0  0  0  0  0
   -2.7575    0.2657   -2.1628 C   0  0  0  0  0  0  0  0  0  0  0  0
   -3.9619   -0.1533   -3.0129 C   0  0  0  0  0  0  0  0  0  0  0  0
   -5.2659    0.4937   -2.5706 C   0  0  0  0  0  0  0  0  0  0  0  0
    9.9420   -1.2501    0.2287 H   0  0  0  0  0  0  0  0  0  0  0  0
    6.9267    0.0046    2.0419 H   0  0  0  0  0  0  0  0  0  0  0  0
    8.2184    1.4869    0.6885 H   0  0  0  0  0  0  0  0  0  0  0  0
    7.4126    1.0757   -0.6385 H   0  0  0  0  0  0  0  0  0  0  0  0
    5.5091   -1.7086    0.8259 H   0  0  0  0  0  0  0  0  0  0  0  0
    4.8640   -0.0662    0.7911 H   0  0  0  0  0  0  0  0  0  0  0  0
    3.7192   -0.3944   -2.8066 H   0  0  0  0  0  0  0  0  0  0  0  0
    3.7537    1.8749   -2.4932 H   0  0  0  0  0  0  0  0  0  0  0  0
    4.5957    1.7834   -0.9192 H   0  0  0  0  0  0  0  0  0  0  0  0
    0.8197    0.8712    1.1060 H   0  0  0  0  0  0  0  0  0  0  0  0
    1.0687   -0.8823    1.0522 H   0  0  0  0  0  0  0  0  0  0  0  0
   -0.3329   -1.1785   -0.8731 H   0  0  0  0  0  0  0  0  0  0  0  0
   -0.1928    0.5081   -1.3552 H   0  0  0  0  0  0  0  0  0  0  0  0
   -2.7641   -0.2600    1.9812 H   0  0  0  0  0  0  0  0  0  0  0  0
   -1.0284   -0.0694    2.2114 H   0  0  0  0  0  0  0  0  0  0  0  0
   -1.1300   -2.4106    0.6413 H   0  0  0  0  0  0  0  0  0  0  0  0
   -0.9533   -2.3156    2.3787 H   0  0  0  0  0  0  0  0  0  0  0  0
   -3.3922   -2.4814    2.7075 H   0  0  0  0  0  0  0  0  0  0  0  0
   -3.6558   -2.5250    0.9655 H   0  0  0  0  0  0  0  0  0  0  0  0
   -2.0688   -4.5949    2.5708 H   0  0  0  0  0  0  0  0  0  0  0  0
   -2.3164   -4.6368    0.8134 H   0  0  0  0  0  0  0  0  0  0  0  0
   -3.6993   -4.8032    1.9097 H   0  0  0  0  0  0  0  0  0  0  0  0
   -1.0734    1.9709    1.2262 H   0  0  0  0  0  0  0  0  0  0  0  0
   -1.2601    2.1676   -0.5169 H   0  0  0  0  0  0  0  0  0  0  0  0
   -2.9234    3.4679    0.4924 H   0  0  0  0  0  0  0  0  0  0  0  0
   -3.7674    2.1552   -0.2742 H   0  0  0  0  0  0  0  0  0  0  0  0
   -3.1053    2.1628    2.7141 H   0  0  0  0  0  0  0  0  0  0  0  0
   -4.2631    1.1171    1.8697 H   0  0  0  0  0  0  0  0  0  0  0  0
   -4.5460    4.1381    2.1720 H   0  0  0  0  0  0  0  0  0  0  0  0
   -5.6800    3.0702    1.3206 H   0  0  0  0  0  0  0  0  0  0  0  0
   -5.4383    2.8988    3.0678 H   0  0  0  0  0  0  0  0  0  0  0  0
   -3.7472   -0.1218   -0.2379 H   0  0  0  0  0  0  0  0  0  0  0  0
   -2.6932   -1.4166   -0.8261 H   0  0  0  0  0  0  0  0  0  0  0  0
   -1.8598   -0.0934   -2.6798 H   0  0  0  0  0  0  0  0  0  0  0  0
   -2.6952    1.3576   -2.1457 H   0  0  0  0  0  0  0  0  0  0  0  0
   -4.0699   -1.2442   -3.0016 H   0  0  0  0  0  0  0  0  0  0  0  0
   -3.7687    0.1355   -4.0536 H   0  0  0  0  0  0  0  0  0  0  0  0
   -6.0705    0.2249   -3.2623 H   0  0  0  0  0  0  0  0  0  0  0  0
   -5.1781    1.5848   -2.5600 H   0  0  0  0  0  0  0  0  0  0  0  0
   -5.5634    0.1620   -1.5716 H   0  0  0  0  0  0  0  0  0  0  0  0
  1  2  2  0
  2  3  1  0
  2  4  1  0
  4  5  1  0
  4  6  1  0
  6  7  1  0
  7  8  1  0
  8  9  1  0
  9 10  2  0
  8 11  1  0
 11 12  1  0
 12 13  2  0
 12 14  1  0
 14 15  1  0
 15 16  1  0
 16 17  1  0
 17 18  1  0
 18 19  1  0
 19 20  1  0
 20 21  1  0
 17 22  1  0
 22 23  1  0
 23 24  1  0
 24 25  1  0
 17 26  1  0
 26 27  1  0
 27 28  1  0
 28 29  1  0
 14  9  1  0
  3 30  1  0
  4 31  1  1
  5 32  1  0
  5 33  1  0
  6 34  1  0
  6 35  1  0
  8 36  1  0
 11 37  1  0
 11 38  1  0
 15 39  1  0
 15 40  1  0
 16 41  1  0
 16 42  1  0
 18 43  1  0
 18 44  1  0
 19 45  1  0
 19 46  1  0
 20 47  1  0
 20 48  1  0
 21 49  1  0
 21 50  1  0
 21 51  1  0
 22 52  1  0
 22 53  1  0
 23 54  1  0
 23 55  1  0
 24 56  1  0
 24 57  1  0
 25 58  1  0
 25 59  1  0
 25 60  1  0
 26 61  1  0
 26 62  1  0
 27 63  1  0
 27 64  1  0
 28 65  1  0
 28 66  1  0
 29 67  1  0
 29 68  1  0
 29 69  1  0
M  CHG  1  17   1
M  END
>  <Name>  (116) 
UA96_TBAmalC

>  <canvasUID>  (116) 
120

>  <MW>  (116) 
430.625

>  <AlogP>  (116) 
1.4471

>  <HBA>  (116) 
3

>  <HBD>  (116) 
0

>  <RB>  (116) 
16

>  <PSA>  (116) 
126

>  <Estate>  (116) 
70.5

>  <Polar>  (116) 
46.87

>  <Chirality>  (116) 
[(3, 'R')]

$$$$

     RDKit          3D

 42 44  0  0  0  0  0  0  0  0999 V2000
    7.3783    0.9519   -1.5182 O   0  0  0  0  0  0  0  0  0  0  0  0
    6.8601    0.0579   -0.8672 C   0  0  0  0  0  0  0  0  0  0  0  0
    7.6080   -0.6887   -0.0220 O   0  0  0  0  0  0  0  0  0  0  0  0
    5.3696   -0.2817   -0.8303 C   0  0  1  0  0  0  0  0  0  0  0  0
    5.1778   -1.7372   -0.6163 N   0  0  0  0  0  0  0  0  0  0  0  0
    4.7183    0.5853    0.2612 C   0  0  0  0  0  0  0  0  0  0  0  0
    3.2117    0.4784    0.3075 C   0  0  0  0  0  0  0  0  0  0  0  0
    2.4260    1.0469   -0.7032 C   0  0  0  0  0  0  0  0  0  0  0  0
    1.0308    0.9413   -0.6696 C   0  0  0  0  0  0  0  0  0  0  0  0
    0.4040    0.2662    0.3772 C   0  0  0  0  0  0  0  0  0  0  0  0
    1.1847   -0.2986    1.3878 C   0  0  0  0  0  0  0  0  0  0  0  0
    2.5772   -0.1947    1.3571 C   0  0  0  0  0  0  0  0  0  0  0  0
   -0.9434    0.0890    0.5319 O   0  0  0  0  0  0  0  0  0  0  0  0
   -1.7910    0.6512   -0.4728 C   0  0  0  0  0  0  0  0  0  0  0  0
   -3.2485    0.3442   -0.1738 C   0  0  0  0  0  0  0  0  0  0  0  0
   -3.5888   -0.7550    0.6405 C   0  0  0  0  0  0  0  0  0  0  0  0
   -4.3103    1.1159   -0.7247 C   0  0  0  0  0  0  0  0  0  0  0  0
   -4.0362    2.2339   -1.6235 N   0  0  0  0  0  4  0  0  0  0  0  0
   -3.2076    2.0507   -2.5253 O   0  0  0  0  0  1  0  0  0  0  0  0
   -4.6590    3.2853   -1.4266 O   0  0  0  0  0  0  0  0  0  0  0  0
   -5.6606    0.8405   -0.4507 C   0  0  0  0  0  0  0  0  0  0  0  0
   -5.9268   -0.2341    0.3654 C   0  0  0  0  0  0  0  0  0  0  0  0
   -4.9229   -1.0109    0.8920 C   0  0  0  0  0  0  0  0  0  0  0  0
   -7.1625   -0.6610    0.7370 O   0  0  0  0  0  0  0  0  0  0  0  0
   -6.8237   -1.7938    1.5653 C   0  0  0  0  0  0  0  0  0  0  0  0
   -5.4026   -2.0245    1.6609 O   0  0  0  0  0  0  0  0  0  0  0  0
    8.5216   -0.3706   -0.1785 H   0  0  0  0  0  0  0  0  0  0  0  0
    4.9593   -0.0442   -1.8184 H   0  0  0  0  0  0  0  0  0  0  0  0
    5.7208   -2.0092    0.2057 H   0  0  0  0  0  0  0  0  0  0  0  0
    4.1989   -1.9147   -0.3923 H   0  0  0  0  0  0  0  0  0  0  0  0
    4.9804    1.6410    0.1063 H   0  0  0  0  0  0  0  0  0  0  0  0
    5.1391    0.3293    1.2434 H   0  0  0  0  0  0  0  0  0  0  0  0
    2.8937    1.5806   -1.5286 H   0  0  0  0  0  0  0  0  0  0  0  0
    0.4703    1.3998   -1.4781 H   0  0  0  0  0  0  0  0  0  0  0  0
    0.7038   -0.8240    2.2096 H   0  0  0  0  0  0  0  0  0  0  0  0
    3.1575   -0.6435    2.1601 H   0  0  0  0  0  0  0  0  0  0  0  0
   -1.6443    1.7373   -0.4696 H   0  0  0  0  0  0  0  0  0  0  0  0
   -1.5476    0.2182   -1.4503 H   0  0  0  0  0  0  0  0  0  0  0  0
   -2.8288   -1.3980    1.0764 H   0  0  0  0  0  0  0  0  0  0  0  0
   -6.4694    1.4346   -0.8639 H   0  0  0  0  0  0  0  0  0  0  0  0
   -7.2972   -2.6889    1.1459 H   0  0  0  0  0  0  0  0  0  0  0  0
   -7.2208   -1.6234    2.5726 H   0  0  0  0  0  0  0  0  0  0  0  0
  1  2  2  0
  2  3  1  0
  2  4  1  0
  4  5  1  0
  4  6  1  0
  6  7  1  0
  7  8  2  0
  8  9  1  0
  9 10  2  0
 10 11  1  0
 11 12  2  0
 10 13  1  0
 13 14  1  0
 14 15  1  0
 15 16  2  0
 15 17  1  0
 17 18  1  0
 18 19  1  0
 18 20  2  0
 17 21  2  0
 21 22  1  0
 22 23  2  0
 22 24  1  0
 24 25  1  0
 25 26  1  0
 12  7  1  0
 23 16  1  0
 26 23  1  0
  3 27  1  0
  4 28  1  6
  5 29  1  0
  5 30  1  0
  6 31  1  0
  6 32  1  0
  8 33  1  0
  9 34  1  0
 11 35  1  0
 12 36  1  0
 14 37  1  0
 14 38  1  0
 16 39  1  0
 21 40  1  0
 25 41  1  0
 25 42  1  0
M  CHG  2  18   1  19  -1
M  END
>  <Name>  (117) 
UA97_NPY

>  <canvasUID>  (117) 
121

>  <MW>  (117) 
360.3181

>  <AlogP>  (117) 
2.0782

>  <HBA>  (117) 
3

>  <HBD>  (117) 
0

>  <RB>  (117) 
7

>  <PSA>  (117) 
134.15

>  <Estate>  (117) 
74.002

>  <Polar>  (117) 
40.554

>  <Chirality>  (117) 
[(3, 'S')]

$$$$

     RDKit          3D

 45 47  0  0  0  0  0  0  0  0999 V2000
   -3.9527    1.5659    2.0108 O   0  0  0  0  0  0  0  0  0  0  0  0
   -4.8849    1.2823    1.2768 C   0  0  0  0  0  0  0  0  0  0  0  0
   -5.7003    2.2567    0.8024 O   0  0  0  0  0  0  0  0  0  0  0  0
   -5.2666   -0.1118    0.7690 C   0  0  1  0  0  0  0  0  0  0  0  0
   -6.7353   -0.2955    0.8987 N   0  0  0  0  0  0  0  0  0  0  0  0
   -4.8138   -0.2883   -0.6900 C   0  0  0  0  0  0  0  0  0  0  0  0
   -3.3126   -0.3220   -0.8527 C   0  0  0  0  0  0  0  0  0  0  0  0
   -2.6266    0.7781   -1.3778 C   0  0  0  0  0  0  0  0  0  0  0  0
   -1.2354    0.7472   -1.5003 C   0  0  0  0  0  0  0  0  0  0  0  0
   -0.5071   -0.3726   -1.0940 C   0  0  0  0  0  0  0  0  0  0  0  0
   -1.1883   -1.4802   -0.5930 C   0  0  0  0  0  0  0  0  0  0  0  0
   -2.5815   -1.4529   -0.4677 C   0  0  0  0  0  0  0  0  0  0  0  0
    0.8443   -0.2651   -1.2635 O   0  0  0  0  0  0  0  0  0  0  0  0
    1.7042   -1.1410   -0.5191 C   0  0  0  0  0  0  0  0  0  0  0  0
    2.1204   -2.3109   -1.4130 C   0  0  0  0  0  0  0  0  0  0  0  0
    2.9312   -0.3360   -0.1003 C   0  0  0  0  0  0  0  0  0  0  0  0
    3.5442    0.5368   -1.0245 C   0  0  0  0  0  0  0  0  0  0  0  0
    3.5029   -0.4286    1.1978 C   0  0  0  0  0  0  0  0  0  0  0  0
    2.9652   -1.3568    2.1774 N   0  0  0  0  0  4  0  0  0  0  0  0
    2.5036   -0.8760    3.2212 O   0  0  0  0  0  1  0  0  0  0  0  0
    3.0040   -2.5607    1.8897 O   0  0  0  0  0  0  0  0  0  0  0  0
    4.6181    0.3249    1.5916 C   0  0  0  0  0  0  0  0  0  0  0  0
    5.1674    1.1597    0.6456 C   0  0  0  0  0  0  0  0  0  0  0  0
    4.6505    1.2600   -0.6246 C   0  0  0  0  0  0  0  0  0  0  0  0
    6.2554    1.9537    0.8247 O   0  0  0  0  0  0  0  0  0  0  0  0
    6.3720    2.5608   -0.4763 C   0  0  0  0  0  0  0  0  0  0  0  0
    5.3502    2.1292   -1.4012 O   0  0  0  0  0  0  0  0  0  0  0  0
   -5.3540    3.0669    1.2317 H   0  0  0  0  0  0  0  0  0  0  0  0
   -4.7878   -0.8489    1.4229 H   0  0  0  0  0  0  0  0  0  0  0  0
   -7.1866    0.5368    0.5129 H   0  0  0  0  0  0  0  0  0  0  0  0
   -7.0372   -1.0811    0.3285 H   0  0  0  0  0  0  0  0  0  0  0  0
   -5.2112   -1.2286   -1.0923 H   0  0  0  0  0  0  0  0  0  0  0  0
   -5.2334    0.5045   -1.3208 H   0  0  0  0  0  0  0  0  0  0  0  0
   -3.1635    1.6716   -1.6902 H   0  0  0  0  0  0  0  0  0  0  0  0
   -0.7130    1.6114   -1.9040 H   0  0  0  0  0  0  0  0  0  0  0  0
   -0.6731   -2.3874   -0.2975 H   0  0  0  0  0  0  0  0  0  0  0  0
   -3.0912   -2.3268   -0.0663 H   0  0  0  0  0  0  0  0  0  0  0  0
    1.1923   -1.4977    0.3783 H   0  0  0  0  0  0  0  0  0  0  0  0
    2.5519   -1.9546   -2.3570 H   0  0  0  0  0  0  0  0  0  0  0  0
    1.2526   -2.9214   -1.6852 H   0  0  0  0  0  0  0  0  0  0  0  0
    2.8589   -2.9590   -0.9214 H   0  0  0  0  0  0  0  0  0  0  0  0
    3.1610    0.6496   -2.0354 H   0  0  0  0  0  0  0  0  0  0  0  0
    5.0439    0.2521    2.5883 H   0  0  0  0  0  0  0  0  0  0  0  0
    6.3075    3.6471   -0.3617 H   0  0  0  0  0  0  0  0  0  0  0  0
    7.3544    2.3084   -0.8909 H   0  0  0  0  0  0  0  0  0  0  0  0
  1  2  2  0
  2  3  1  0
  2  4  1  0
  4  5  1  0
  4  6  1  0
  6  7  1  0
  7  8  2  0
  8  9  1  0
  9 10  2  0
 10 11  1  0
 11 12  2  0
 10 13  1  0
 13 14  1  0
 14 15  1  0
 14 16  1  0
 16 17  2  0
 16 18  1  0
 18 19  1  0
 19 20  1  0
 19 21  2  0
 18 22  2  0
 22 23  1  0
 23 24  2  0
 23 25  1  0
 25 26  1  0
 26 27  1  0
 12  7  1  0
 24 17  1  0
 27 24  1  0
  3 28  1  0
  4 29  1  1
  5 30  1  0
  5 31  1  0
  6 32  1  0
  6 33  1  0
  8 34  1  0
  9 35  1  0
 11 36  1  0
 12 37  1  0
 14 38  1  0
 15 39  1  0
 15 40  1  0
 15 41  1  0
 17 42  1  0
 22 43  1  0
 26 44  1  0
 26 45  1  0
M  CHG  2  19   1  20  -1
M  END
>  <Name>  (118) 
UA98_MNPY

>  <canvasUID>  (118) 
122

>  <MW>  (118) 
374.3447

>  <AlogP>  (118) 
2.4557

>  <HBA>  (118) 
3

>  <HBD>  (118) 
0

>  <RB>  (118) 
7

>  <PSA>  (118) 
134.15

>  <Estate>  (118) 
75.835

>  <Polar>  (118) 
42.389

>  <Chirality>  (118) 
[(3, 'S')]

$$$$

     RDKit          3D

 42 43  0  0  0  0  0  0  0  0999 V2000
    7.4602    0.6079   -0.2626 O   0  0  0  0  0  0  0  0  0  0  0  0
    6.3534    0.5937   -0.7817 C   0  0  0  0  0  0  0  0  0  0  0  0
    6.1695    1.1215   -2.0089 O   0  0  0  0  0  0  0  0  0  0  0  0
    5.0781   -0.0082   -0.1836 C   0  0  1  0  0  0  0  0  0  0  0  0
    5.4280   -0.7978    1.0288 N   0  0  0  0  0  0  0  0  0  0  0  0
    4.0829    1.1192    0.1437 C   0  0  0  0  0  0  0  0  0  0  0  0
    2.6472    0.6498    0.2022 C   0  0  0  0  0  0  0  0  0  0  0  0
    1.7924    0.8394   -0.8910 C   0  0  0  0  0  0  0  0  0  0  0  0
    0.4626    0.4034   -0.8451 C   0  0  0  0  0  0  0  0  0  0  0  0
   -0.0298   -0.2297    0.2946 C   0  0  0  0  0  0  0  0  0  0  0  0
    0.8258   -0.4327    1.3799 C   0  0  0  0  0  0  0  0  0  0  0  0
    2.1520    0.0031    1.3381 C   0  0  0  0  0  0  0  0  0  0  0  0
   -1.2960   -0.7093    0.4779 O   0  0  0  0  0  0  0  0  0  0  0  0
   -2.3174   -0.3916   -0.4803 C   0  0  0  0  0  0  0  0  0  0  0  0
   -2.3389   -1.4596   -1.5762 C   0  0  0  0  0  0  0  0  0  0  0  0
   -3.6534   -0.3766    0.2572 C   0  0  0  0  0  0  0  0  0  0  0  0
   -4.6580    0.5848    0.0258 C   0  0  0  0  0  0  0  0  0  0  0  0
   -4.4954    1.6261   -0.9807 N   0  0  0  0  0  4  0  0  0  0  0  0
   -4.7020    2.7946   -0.6267 O   0  0  0  0  0  1  0  0  0  0  0  0
   -4.1791    1.2690   -2.1234 O   0  0  0  0  0  0  0  0  0  0  0  0
   -5.8678    0.5826    0.7407 C   0  0  0  0  0  0  0  0  0  0  0  0
   -6.1006   -0.4044    1.6950 C   0  0  0  0  0  0  0  0  0  0  0  0
   -5.1336   -1.3788    1.9317 C   0  0  0  0  0  0  0  0  0  0  0  0
   -3.9272   -1.3658    1.2232 C   0  0  0  0  0  0  0  0  0  0  0  0
    7.0602    1.4402   -2.2686 H   0  0  0  0  0  0  0  0  0  0  0  0
    4.6669   -0.7036   -0.9252 H   0  0  0  0  0  0  0  0  0  0  0  0
    5.9566   -0.1902    1.6597 H   0  0  0  0  0  0  0  0  0  0  0  0
    6.1011   -1.5163    0.7547 H   0  0  0  0  0  0  0  0  0  0  0  0
    4.3434    1.6032    1.0958 H   0  0  0  0  0  0  0  0  0  0  0  0
    4.1525    1.9245   -0.6002 H   0  0  0  0  0  0  0  0  0  0  0  0
    2.1543    1.3293   -1.7926 H   0  0  0  0  0  0  0  0  0  0  0  0
   -0.1496    0.5696   -1.7248 H   0  0  0  0  0  0  0  0  0  0  0  0
    0.4576   -0.9357    2.2704 H   0  0  0  0  0  0  0  0  0  0  0  0
    2.7981   -0.1748    2.1954 H   0  0  0  0  0  0  0  0  0  0  0  0
   -2.1307    0.6031   -0.8929 H   0  0  0  0  0  0  0  0  0  0  0  0
   -1.4006   -1.4636   -2.1408 H   0  0  0  0  0  0  0  0  0  0  0  0
   -3.1612   -1.3012   -2.2818 H   0  0  0  0  0  0  0  0  0  0  0  0
   -2.4430   -2.4646   -1.1491 H   0  0  0  0  0  0  0  0  0  0  0  0
   -6.6270    1.3411    0.5577 H   0  0  0  0  0  0  0  0  0  0  0  0
   -7.0333   -0.4147    2.2541 H   0  0  0  0  0  0  0  0  0  0  0  0
   -5.3129   -2.1511    2.6768 H   0  0  0  0  0  0  0  0  0  0  0  0
   -3.1854   -2.1356    1.4403 H   0  0  0  0  0  0  0  0  0  0  0  0
  1  2  2  0
  2  3  1  0
  2  4  1  0
  4  5  1  0
  4  6  1  0
  6  7  1  0
  7  8  2  0
  8  9  1  0
  9 10  2  0
 10 11  1  0
 11 12  2  0
 10 13  1  0
 13 14  1  0
 14 15  1  0
 14 16  1  0
 16 17  2  0
 17 18  1  0
 18 19  1  0
 18 20  2  0
 17 21  1  0
 21 22  2  0
 22 23  1  0
 23 24  2  0
 12  7  1  0
 24 16  1  0
  3 25  1  0
  4 26  1  6
  5 27  1  0
  5 28  1  0
  6 29  1  0
  6 30  1  0
  8 31  1  0
  9 32  1  0
 11 33  1  0
 12 34  1  0
 14 35  1  0
 15 36  1  0
 15 37  1  0
 15 38  1  0
 21 39  1  0
 22 40  1  0
 23 41  1  0
 24 42  1  0
M  CHG  2  18   1  19  -1
M  END
>  <Name>  (119) 
UA99_NPPY

>  <canvasUID>  (119) 
123

>  <MW>  (119) 
330.3352

>  <AlogP>  (119) 
2.6876

>  <HBA>  (119) 
1

>  <HBD>  (119) 
0

>  <RB>  (119) 
7

>  <PSA>  (119) 
115.69

>  <Estate>  (119) 
68.001

>  <Polar>  (119) 
40.054

>  <Chirality>  (119) 
[(3, 'S')]

$$$$

     RDKit          3D

 39 40  0  0  0  0  0  0  0  0999 V2000
    4.0672    2.2697    1.0794 O   0  0  0  0  0  0  0  0  0  0  0  0
    4.8993    1.4927    0.6422 C   0  0  0  0  0  0  0  0  0  0  0  0
    6.0269    1.2440    1.3501 O   0  0  0  0  0  0  0  0  0  0  0  0
    4.8249    0.7033   -0.6705 C   0  0  1  0  0  0  0  0  0  0  0  0
    6.1930    0.5208   -1.2314 N   0  0  0  0  0  0  0  0  0  0  0  0
    4.1776   -0.6682   -0.4305 C   0  0  0  0  0  0  0  0  0  0  0  0
    2.6888   -0.5921   -0.1824 C   0  0  0  0  0  0  0  0  0  0  0  0
    2.1727   -0.6904    1.1137 C   0  0  0  0  0  0  0  0  0  0  0  0
    0.7953   -0.6075    1.3313 C   0  0  0  0  0  0  0  0  0  0  0  0
   -0.0870   -0.4253    0.2644 C   0  0  0  0  0  0  0  0  0  0  0  0
    0.4221   -0.3269   -1.0300 C   0  0  0  0  0  0  0  0  0  0  0  0
    1.8015   -0.4092   -1.2509 C   0  0  0  0  0  0  0  0  0  0  0  0
   -1.4065   -0.3618    0.6200 O   0  0  0  0  0  0  0  0  0  0  0  0
   -2.3514   -0.1485   -0.4321 C   0  0  0  0  0  0  0  0  0  0  0  0
   -3.7670   -0.1127    0.1149 C   0  0  0  0  0  0  0  0  0  0  0  0
   -4.8347    0.4766   -0.5938 C   0  0  0  0  0  0  0  0  0  0  0  0
   -4.6306    1.0722   -1.9125 N   0  0  0  0  0  4  0  0  0  0  0  0
   -3.9410    0.4415   -2.7256 O   0  0  0  0  0  1  0  0  0  0  0  0
   -5.1734    2.1633   -2.1332 O   0  0  0  0  0  0  0  0  0  0  0  0
   -6.1398    0.5072   -0.0748 C   0  0  0  0  0  0  0  0  0  0  0  0
   -6.4015   -0.0761    1.1622 C   0  0  0  0  0  0  0  0  0  0  0  0
   -5.3697   -0.6879    1.8702 C   0  0  0  0  0  0  0  0  0  0  0  0
   -4.0703   -0.7103    1.3519 C   0  0  0  0  0  0  0  0  0  0  0  0
    5.9237    1.8067    2.1470 H   0  0  0  0  0  0  0  0  0  0  0  0
    4.2544    1.2993   -1.3915 H   0  0  0  0  0  0  0  0  0  0  0  0
    6.7780    0.1452   -0.4784 H   0  0  0  0  0  0  0  0  0  0  0  0
    6.5858    1.4442   -1.4191 H   0  0  0  0  0  0  0  0  0  0  0  0
    4.3350   -1.3166   -1.3035 H   0  0  0  0  0  0  0  0  0  0  0  0
    4.6631   -1.1815    0.4106 H   0  0  0  0  0  0  0  0  0  0  0  0
    2.8336   -0.8274    1.9662 H   0  0  0  0  0  0  0  0  0  0  0  0
    0.4075   -0.6814    2.3442 H   0  0  0  0  0  0  0  0  0  0  0  0
   -0.2202   -0.1857   -1.8933 H   0  0  0  0  0  0  0  0  0  0  0  0
    2.1786   -0.3310   -2.2691 H   0  0  0  0  0  0  0  0  0  0  0  0
   -2.1241    0.8159   -0.9010 H   0  0  0  0  0  0  0  0  0  0  0  0
   -2.2893   -0.9692   -1.1566 H   0  0  0  0  0  0  0  0  0  0  0  0
   -6.9523    0.9746   -0.6279 H   0  0  0  0  0  0  0  0  0  0  0  0
   -7.4083   -0.0596    1.5728 H   0  0  0  0  0  0  0  0  0  0  0  0
   -5.5729   -1.1505    2.8339 H   0  0  0  0  0  0  0  0  0  0  0  0
   -3.2892   -1.1991    1.9336 H   0  0  0  0  0  0  0  0  0  0  0  0
  1  2  2  0
  2  3  1  0
  2  4  1  0
  4  5  1  0
  4  6  1  0
  6  7  1  0
  7  8  2  0
  8  9  1  0
  9 10  2  0
 10 11  1  0
 11 12  2  0
 10 13  1  0
 13 14  1  0
 14 15  1  0
 15 16  2  0
 16 17  1  0
 17 18  1  0
 17 19  2  0
 16 20  1  0
 20 21  2  0
 21 22  1  0
 22 23  2  0
 12  7  1  0
 23 15  1  0
  3 24  1  0
  4 25  1  6
  5 26  1  0
  5 27  1  0
  6 28  1  0
  6 29  1  0
  8 30  1  0
  9 31  1  0
 11 32  1  0
 12 33  1  0
 14 34  1  0
 14 35  1  0
 20 36  1  0
 21 37  1  0
 22 38  1  0
 23 39  1  0
M  CHG  2  17   1  18  -1
M  END
>  <Name>  (120) 
UB00_NBY

>  <canvasUID>  (120) 
124

>  <MW>  (120) 
316.3086

>  <AlogP>  (120) 
2.3101

>  <HBA>  (120) 
1

>  <HBD>  (120) 
0

>  <RB>  (120) 
7

>  <PSA>  (120) 
115.69

>  <Estate>  (120) 
66.168

>  <Polar>  (120) 
38.219

>  <Chirality>  (120) 
[(3, 'S')]

$$$$

     RDKit          3D

 37 38  0  0  0  0  0  0  0  0999 V2000
    6.8738    1.9209   -2.2131 C   0  0  0  0  0  0  0  0  0  0  0  0
    5.9792    1.2612   -1.7585 C   0  0  0  0  0  0  0  0  0  0  0  0
    4.9139    0.4749   -1.2171 C   0  0  0  0  0  0  0  0  0  0  0  0
    3.8132    1.1010   -0.6263 C   0  0  0  0  0  0  0  0  0  0  0  0
    2.7703    0.3357   -0.0951 C   0  0  0  0  0  0  0  0  0  0  0  0
    2.8226   -1.0617   -0.1675 C   0  0  0  0  0  0  0  0  0  0  0  0
    3.9363   -1.6872   -0.7406 C   0  0  0  0  0  0  0  0  0  0  0  0
    4.9769   -0.9194   -1.2702 C   0  0  0  0  0  0  0  0  0  0  0  0
    1.7457   -1.9145    0.3969 C   0  0  0  0  0  0  0  0  0  0  0  0
    2.0451   -2.9843    0.9217 O   0  0  0  0  0  0  0  0  0  0  0  0
    0.3190   -1.5055    0.3464 C   0  0  0  0  0  0  0  0  0  0  0  0
   -0.5224   -1.8936    1.3942 C   0  0  0  0  0  0  0  0  0  0  0  0
   -1.8721   -1.5353    1.3804 C   0  0  0  0  0  0  0  0  0  0  0  0
   -2.3995   -0.7947    0.3132 C   0  0  0  0  0  0  0  0  0  0  0  0
   -1.5556   -0.4295   -0.7439 C   0  0  0  0  0  0  0  0  0  0  0  0
   -0.2050   -0.7877   -0.7334 C   0  0  0  0  0  0  0  0  0  0  0  0
   -3.8614   -0.3998    0.3046 C   0  0  0  0  0  0  0  0  0  0  0  0
   -4.1674    0.7922    1.2253 C   0  0  2  0  0  0  0  0  0  0  0  0
   -5.6134    0.8047    1.5657 N   0  0  0  0  0  0  0  0  0  0  0  0
   -3.7995    2.1329    0.5698 C   0  0  0  0  0  0  0  0  0  0  0  0
   -3.1458    2.3281   -0.4411 O   0  0  0  0  0  0  0  0  0  0  0  0
   -4.2713    3.1893    1.2795 O   0  0  0  0  0  0  0  0  0  0  0  0
    7.6682    2.5049   -2.6161 H   0  0  0  0  0  0  0  0  0  0  0  0
    3.7653    2.1863   -0.5688 H   0  0  0  0  0  0  0  0  0  0  0  0
    1.9369    0.8433    0.3838 H   0  0  0  0  0  0  0  0  0  0  0  0
    3.9959   -2.7734   -0.7750 H   0  0  0  0  0  0  0  0  0  0  0  0
    5.8350   -1.4163   -1.7171 H   0  0  0  0  0  0  0  0  0  0  0  0
   -0.1276   -2.4786    2.2228 H   0  0  0  0  0  0  0  0  0  0  0  0
   -2.5098   -1.8482    2.2046 H   0  0  0  0  0  0  0  0  0  0  0  0
   -1.9466    0.1389   -1.5870 H   0  0  0  0  0  0  0  0  0  0  0  0
    0.4160   -0.5111   -1.5814 H   0  0  0  0  0  0  0  0  0  0  0  0
   -4.1869   -0.1926   -0.7234 H   0  0  0  0  0  0  0  0  0  0  0  0
   -4.4343   -1.2821    0.6227 H   0  0  0  0  0  0  0  0  0  0  0  0
   -3.5941    0.7237    2.1577 H   0  0  0  0  0  0  0  0  0  0  0  0
   -5.8108    0.0426    2.2121 H   0  0  0  0  0  0  0  0  0  0  0  0
   -5.7990    1.6713    2.0785 H   0  0  0  0  0  0  0  0  0  0  0  0
   -3.9906    3.9635    0.7480 H   0  0  0  0  0  0  0  0  0  0  0  0
  1  2  3  0
  2  3  1  0
  3  4  2  0
  4  5  1  0
  5  6  2  0
  6  7  1  0
  7  8  2  0
  6  9  1  0
  9 10  2  0
  9 11  1  0
 11 12  2  0
 12 13  1  0
 13 14  2  0
 14 15  1  0
 15 16  2  0
 14 17  1  0
 17 18  1  0
 18 19  1  0
 18 20  1  0
 20 21  2  0
 20 22  1  0
  8  3  1  0
 16 11  1  0
  1 23  1  0
  4 24  1  0
  5 25  1  0
  7 26  1  0
  8 27  1  0
 12 28  1  0
 13 29  1  0
 15 30  1  0
 16 31  1  0
 17 32  1  0
 17 33  1  0
 18 34  1  1
 19 35  1  0
 19 36  1  0
 22 37  1  0
M  END
>  <Name>  (121) 
UB01_BPKyne

>  <canvasUID>  (121) 
125

>  <MW>  (121) 
293.3166

>  <AlogP>  (121) 
3.3799

>  <HBA>  (121) 
1

>  <HBD>  (121) 
1

>  <RB>  (121) 
5

>  <PSA>  (121) 
80.39

>  <Estate>  (121) 
60.335

>  <Polar>  (121) 
38.688

>  <Chirality>  (121) 
[(17, 'S')]

$$$$

     RDKit          3D

 24 24  0  0  0  0  0  0  0  0999 V2000
   -2.2073    1.0818    2.0071 O   0  0  0  0  0  0  0  0  0  0  0  0
   -2.5641    0.7155    0.8981 C   0  0  0  0  0  0  0  0  0  0  0  0
   -3.5383    1.3951    0.2461 O   0  0  0  0  0  0  0  0  0  0  0  0
   -2.0862   -0.5160    0.1236 C   0  0  1  0  0  0  0  0  0  0  0  0
   -1.8212   -0.1529   -1.2858 N   0  0  0  0  0  0  0  0  0  0  0  0
   -0.8988   -1.1998    0.8430 C   0  0  0  0  0  0  0  0  0  0  0  0
    0.4236   -0.6783    0.4828 N   0  0  0  0  0  0  0  0  0  0  0  0
    1.0599   -1.1910   -0.6554 C   0  0  0  0  0  0  0  0  0  0  0  0
    2.2931   -0.6876   -0.9968 N   0  0  0  0  0  0  0  0  0  0  0  0
    0.5307   -2.0727   -1.3333 O   0  0  0  0  0  0  0  0  0  0  0  0
    0.9814    0.3369    1.2234 C   0  0  0  0  0  0  0  0  0  0  0  0
    2.1640    0.8531    0.8957 C   0  0  0  0  0  0  0  0  0  0  0  0
    2.8167    0.2630   -0.2891 C   0  0  0  0  0  0  0  0  0  0  0  0
    4.0391    0.7301   -0.6895 N   0  0  0  0  0  0  0  0  0  0  0  0
   -3.7302    2.1568    0.8309 H   0  0  0  0  0  0  0  0  0  0  0  0
   -2.9281   -1.2200    0.1497 H   0  0  0  0  0  0  0  0  0  0  0  0
   -1.4513   -0.9692   -1.7809 H   0  0  0  0  0  0  0  0  0  0  0  0
   -2.7003    0.1089   -1.7309 H   0  0  0  0  0  0  0  0  0  0  0  0
   -0.9144   -2.2659    0.5811 H   0  0  0  0  0  0  0  0  0  0  0  0
   -1.0111   -1.1607    1.9338 H   0  0  0  0  0  0  0  0  0  0  0  0
    0.4253    0.7011    2.0820 H   0  0  0  0  0  0  0  0  0  0  0  0
    2.6459    1.6437    1.4506 H   0  0  0  0  0  0  0  0  0  0  0  0
    4.2691    0.4062   -1.6248 H   0  0  0  0  0  0  0  0  0  0  0  0
    4.2026    1.7218   -0.5698 H   0  0  0  0  0  0  0  0  0  0  0  0
  1  2  2  0
  2  3  1  0
  2  4  1  0
  4  5  1  0
  4  6  1  0
  6  7  1  0
  7  8  1  0
  8  9  1  0
  8 10  2  0
  7 11  1  0
 11 12  2  0
 12 13  1  0
 13 14  1  0
 13  9  2  0
  3 15  1  0
  4 16  1  6
  5 17  1  0
  5 18  1  0
  6 19  1  0
  6 20  1  0
 11 21  1  0
 12 22  1  0
 14 23  1  0
 14 24  1  0
M  END
>  <Name>  (122) 
UB02_CytA

>  <canvasUID>  (122) 
126

>  <MW>  (122) 
198.1793

>  <AlogP>  (122) 
-0.7498

>  <HBA>  (122) 
2

>  <HBD>  (122) 
1

>  <RB>  (122) 
3

>  <PSA>  (122) 
124.23

>  <Estate>  (122) 
45.834

>  <Polar>  (122) 
20.691

>  <Chirality>  (122) 
[(3, 'S')]

$$$$

     RDKit          3D

 23 23  0  0  0  0  0  0  0  0999 V2000
    3.6378   -1.2716    0.0332 O   0  0  0  0  0  0  0  0  0  0  0  0
    3.0987   -0.1742    0.0207 C   0  0  0  0  0  0  0  0  0  0  0  0
    3.7285    0.9027    0.5279 O   0  0  0  0  0  0  0  0  0  0  0  0
    1.6904    0.1289   -0.4803 C   0  0  1  0  0  0  0  0  0  0  0  0
    1.4169   -0.6714   -1.7019 N   0  0  0  0  0  0  0  0  0  0  0  0
    0.7201   -0.1831    0.6758 C   0  0  0  0  0  0  0  0  0  0  0  0
   -0.6919    0.0109    0.3192 N   0  0  0  0  0  0  0  0  0  0  0  0
   -1.1733    1.3132    0.2257 C   0  0  0  0  0  0  0  0  0  0  0  0
   -0.4858    2.3114    0.4251 O   0  0  0  0  0  0  0  0  0  0  0  0
   -2.4953    1.4318   -0.1120 N   0  0  0  0  0  0  0  0  0  0  0  0
   -1.5033   -1.0832    0.0971 C   0  0  0  0  0  0  0  0  0  0  0  0
   -2.7916   -0.9497   -0.2248 C   0  0  0  0  0  0  0  0  0  0  0  0
   -3.3598    0.4027   -0.3436 C   0  0  0  0  0  0  0  0  0  0  0  0
   -4.5380    0.5687   -0.6337 O   0  0  0  0  0  0  0  0  0  0  0  0
    4.6170    0.5722    0.7770 H   0  0  0  0  0  0  0  0  0  0  0  0
    1.6359    1.1839   -0.7686 H   0  0  0  0  0  0  0  0  0  0  0  0
    1.6316   -1.6511   -1.5082 H   0  0  0  0  0  0  0  0  0  0  0  0
    0.4211   -0.6196   -1.9106 H   0  0  0  0  0  0  0  0  0  0  0  0
    0.9455    0.4754    1.5253 H   0  0  0  0  0  0  0  0  0  0  0  0
    0.8645   -1.2095    1.0387 H   0  0  0  0  0  0  0  0  0  0  0  0
   -2.8622    2.3678   -0.1833 H   0  0  0  0  0  0  0  0  0  0  0  0
   -1.0553   -2.0681    0.1951 H   0  0  0  0  0  0  0  0  0  0  0  0
   -3.4515   -1.7882   -0.4026 H   0  0  0  0  0  0  0  0  0  0  0  0
  1  2  2  0
  2  3  1  0
  2  4  1  0
  4  5  1  0
  4  6  1  0
  6  7  1  0
  7  8  1  0
  8  9  2  0
  8 10  1  0
  7 11  1  0
 11 12  2  0
 12 13  1  0
 13 14  2  0
 13 10  1  0
  3 15  1  0
  4 16  1  6
  5 17  1  0
  5 18  1  0
  6 19  1  0
  6 20  1  0
 10 21  1  0
 11 22  1  0
 12 23  1  0
M  END
>  <Name>  (123) 
UB03_UraA

>  <canvasUID>  (123) 
127

>  <MW>  (123) 
199.1641

>  <AlogP>  (123) 
-0.8482

>  <HBA>  (123) 
2

>  <HBD>  (123) 
1

>  <RB>  (123) 
3

>  <PSA>  (123) 
118.18

>  <Estate>  (123) 
48.334

>  <Polar>  (123) 
19.909

>  <Chirality>  (123) 
[(3, 'S')]

$$$$

     RDKit          3D

 26 26  0  0  0  0  0  0  0  0999 V2000
   -4.3864    0.2296    0.8849 O   0  0  0  0  0  0  0  0  0  0  0  0
   -3.4307    0.7274    0.3085 C   0  0  0  0  0  0  0  0  0  0  0  0
   -3.6289    1.6387   -0.6645 O   0  0  0  0  0  0  0  0  0  0  0  0
   -1.9536    0.4740    0.6173 C   0  0  1  0  0  0  0  0  0  0  0  0
   -1.8286   -0.5829    1.6549 N   0  0  0  0  0  0  0  0  0  0  0  0
   -1.2122    0.1357   -0.6942 C   0  0  0  0  0  0  0  0  0  0  0  0
    0.1689   -0.3168   -0.4907 N   0  0  0  0  0  0  0  0  0  0  0  0
    1.1818    0.6141   -0.3881 C   0  0  0  0  0  0  0  0  0  0  0  0
    0.4001   -1.6761   -0.3185 C   0  0  0  0  0  0  0  0  0  0  0  0
   -0.4801   -2.5346   -0.3635 O   0  0  0  0  0  0  0  0  0  0  0  0
    1.7033   -2.0284   -0.0942 N   0  0  0  0  0  0  0  0  0  0  0  0
    2.7612   -1.1736    0.0135 C   0  0  0  0  0  0  0  0  0  0  0  0
    3.9008   -1.5708    0.2317 O   0  0  0  0  0  0  0  0  0  0  0  0
    2.4524    0.2671   -0.1496 C   0  0  0  0  0  0  0  0  0  0  0  0
    3.5838    1.2333   -0.0271 C   0  0  0  0  0  0  0  0  0  0  0  0
   -4.6062    1.7182   -0.7177 H   0  0  0  0  0  0  0  0  0  0  0  0
   -1.5483    1.3949    1.0517 H   0  0  0  0  0  0  0  0  0  0  0  0
   -1.9220   -1.4991    1.2034 H   0  0  0  0  0  0  0  0  0  0  0  0
   -2.6350   -0.5166    2.2824 H   0  0  0  0  0  0  0  0  0  0  0  0
   -1.7602   -0.6459   -1.2371 H   0  0  0  0  0  0  0  0  0  0  0  0
   -1.1942    1.0080   -1.3603 H   0  0  0  0  0  0  0  0  0  0  0  0
    0.8998    1.6566   -0.5073 H   0  0  0  0  0  0  0  0  0  0  0  0
    1.8905   -3.0093    0.0359 H   0  0  0  0  0  0  0  0  0  0  0  0
    4.0494    1.1567    0.9609 H   0  0  0  0  0  0  0  0  0  0  0  0
    4.3449    1.0318   -0.7879 H   0  0  0  0  0  0  0  0  0  0  0  0
    3.2496    2.2681   -0.1574 H   0  0  0  0  0  0  0  0  0  0  0  0
  1  2  2  0
  2  3  1  0
  2  4  1  0
  4  5  1  0
  4  6  1  0
  6  7  1  0
  7  8  1  0
  7  9  1  0
  9 10  2  0
  9 11  1  0
 11 12  1  0
 12 13  2  0
 12 14  1  0
 14 15  1  0
 14  8  2  0
  3 16  1  0
  4 17  1  1
  5 18  1  0
  5 19  1  0
  6 20  1  0
  6 21  1  0
  8 22  1  0
 11 23  1  0
 15 24  1  0
 15 25  1  0
 15 26  1  0
M  END
>  <Name>  (124) 
UB04_ThyA

>  <canvasUID>  (124) 
128

>  <MW>  (124) 
213.1906

>  <AlogP>  (124) 
-0.362

>  <HBA>  (124) 
2

>  <HBD>  (124) 
1

>  <RB>  (124) 
3

>  <PSA>  (124) 
118.18

>  <Estate>  (124) 
50.001

>  <Polar>  (124) 
21.744

>  <Chirality>  (124) 
[(3, 'S')]

$$$$

     RDKit          3D

 26 27  0  0  0  0  0  0  0  0999 V2000
    1.9598   -2.2671    0.4089 O   0  0  0  0  0  0  0  0  0  0  0  0
    2.5494   -1.2581    0.0605 C   0  0  0  0  0  0  0  0  0  0  0  0
    3.5702   -1.3384   -0.8248 O   0  0  0  0  0  0  0  0  0  0  0  0
    2.2157    0.1779    0.4649 C   0  0  1  0  0  0  0  0  0  0  0  0
    3.4752    0.9333    0.6924 N   0  0  0  0  0  0  0  0  0  0  0  0
    1.3542    0.8125   -0.6334 C   0  0  0  0  0  0  0  0  0  0  0  0
    0.0228    0.2491   -0.7199 N   0  0  0  0  0  0  0  0  0  0  0  0
   -0.4463   -0.5883   -1.6954 C   0  0  0  0  0  0  0  0  0  0  0  0
   -1.7150   -0.8906   -1.5128 N   0  0  0  0  0  0  0  0  0  0  0  0
   -1.0071    0.5042    0.1410 C   0  0  0  0  0  0  0  0  0  0  0  0
   -2.0797   -0.2095   -0.3675 C   0  0  0  0  0  0  0  0  0  0  0  0
   -0.9847    1.2736    1.2409 N   0  0  0  0  0  0  0  0  0  0  0  0
   -2.1908    1.2710    1.8463 C   0  0  0  0  0  0  0  0  0  0  0  0
   -3.3177    0.6247    1.4736 N   0  0  0  0  0  0  0  0  0  0  0  0
   -3.2868   -0.1218    0.3455 C   0  0  0  0  0  0  0  0  0  0  0  0
   -4.4484   -0.7808   -0.0390 N   0  0  0  0  0  0  0  0  0  0  0  0
    3.6945   -2.3046   -0.9452 H   0  0  0  0  0  0  0  0  0  0  0  0
    1.6838    0.1379    1.4216 H   0  0  0  0  0  0  0  0  0  0  0  0
    4.0748    0.8287   -0.1291 H   0  0  0  0  0  0  0  0  0  0  0  0
    3.2751    1.9263    0.7992 H   0  0  0  0  0  0  0  0  0  0  0  0
    1.8226    0.7080   -1.6200 H   0  0  0  0  0  0  0  0  0  0  0  0
    1.2250    1.8870   -0.4517 H   0  0  0  0  0  0  0  0  0  0  0  0
    0.1703   -0.9464   -2.5105 H   0  0  0  0  0  0  0  0  0  0  0  0
   -2.2679    1.8648    2.7529 H   0  0  0  0  0  0  0  0  0  0  0  0
   -4.2732   -1.5691   -0.6525 H   0  0  0  0  0  0  0  0  0  0  0  0
   -5.0756   -0.9243    0.7413 H   0  0  0  0  0  0  0  0  0  0  0  0
  1  2  2  0
  2  3  1  0
  2  4  1  0
  4  5  1  0
  4  6  1  0
  6  7  1  0
  7  8  1  0
  8  9  2  0
  7 10  1  0
 10 11  2  0
 10 12  1  0
 12 13  2  0
 13 14  1  0
 14 15  2  0
 15 16  1  0
 11  9  1  0
 15 11  1  0
  3 17  1  0
  4 18  1  1
  5 19  1  0
  5 20  1  0
  6 21  1  0
  6 22  1  0
  8 23  1  0
 13 24  1  0
 16 25  1  0
 16 26  1  0
M  END
>  <Name>  (125) 
UB05_AdeA

>  <canvasUID>  (125) 
129

>  <MW>  (125) 
222.204

>  <AlogP>  (125) 
-1.6102

>  <HBA>  (125) 
3

>  <HBD>  (125) 
1

>  <RB>  (125) 
3

>  <PSA>  (125) 
132.94

>  <Estate>  (125) 
46.501

>  <Polar>  (125) 
24.078

>  <Chirality>  (125) 
[(3, 'S')]

$$$$

     RDKit          3D

 27 28  0  0  0  0  0  0  0  0999 V2000
   -4.2569   -0.0845    1.0116 O   0  0  0  0  0  0  0  0  0  0  0  0
   -3.5878    0.5330    0.1990 C   0  0  0  0  0  0  0  0  0  0  0  0
   -4.1889    1.3865   -0.6635 O   0  0  0  0  0  0  0  0  0  0  0  0
   -2.0798    0.4228   -0.0357 C   0  0  1  0  0  0  0  0  0  0  0  0
   -1.4997    1.7832   -0.1579 N   0  0  0  0  0  0  0  0  0  0  0  0
   -1.4147   -0.3758    1.0969 C   0  0  0  0  0  0  0  0  0  0  0  0
   -0.2691   -1.1436    0.6401 N   0  0  0  0  0  0  0  0  0  0  0  0
   -0.1965   -2.5135    0.5826 C   0  0  0  0  0  0  0  0  0  0  0  0
    0.9677   -2.9288    0.1254 N   0  0  0  0  0  0  0  0  0  0  0  0
    0.9279   -0.6584    0.1963 C   0  0  0  0  0  0  0  0  0  0  0  0
    1.6717   -1.7757   -0.1106 C   0  0  0  0  0  0  0  0  0  0  0  0
    1.2831    0.6437    0.0787 N   0  0  0  0  0  0  0  0  0  0  0  0
    2.5007    0.8082   -0.3644 C   0  0  0  0  0  0  0  0  0  0  0  0
    2.9984    2.0610   -0.5186 N   0  0  0  0  0  0  0  0  0  0  0  0
    3.3478   -0.2305   -0.6931 N   0  0  0  0  0  0  0  0  0  0  0  0
    3.0115   -1.5758   -0.6184 C   0  0  0  0  0  0  0  0  0  0  0  0
    3.7915   -2.4588   -0.9609 O   0  0  0  0  0  0  0  0  0  0  0  0
   -5.1305    1.3750   -0.3925 H   0  0  0  0  0  0  0  0  0  0  0  0
   -1.9556   -0.1030   -0.9911 H   0  0  0  0  0  0  0  0  0  0  0  0
   -1.9038    2.2277   -0.9837 H   0  0  0  0  0  0  0  0  0  0  0  0
   -0.4931    1.6815   -0.3367 H   0  0  0  0  0  0  0  0  0  0  0  0
   -1.0640    0.2765    1.9066 H   0  0  0  0  0  0  0  0  0  0  0  0
   -2.1067   -1.0931    1.5530 H   0  0  0  0  0  0  0  0  0  0  0  0
   -1.0146   -3.1561    0.8839 H   0  0  0  0  0  0  0  0  0  0  0  0
    2.4237    2.7575   -0.0523 H   0  0  0  0  0  0  0  0  0  0  0  0
    3.9819    2.1811   -0.3132 H   0  0  0  0  0  0  0  0  0  0  0  0
    4.2557   -0.0399   -1.0815 H   0  0  0  0  0  0  0  0  0  0  0  0
  1  2  2  0
  2  3  1  0
  2  4  1  0
  4  5  1  0
  4  6  1  0
  6  7  1  0
  7  8  1  0
  8  9  2  0
  7 10  1  0
 10 11  2  0
 10 12  1  0
 12 13  2  0
 13 14  1  0
 13 15  1  0
 15 16  1  0
 16 17  2  0
 11  9  1  0
 16 11  1  0
  3 18  1  0
  4 19  1  6
  5 20  1  0
  5 21  1  0
  6 22  1  0
  6 23  1  0
  8 24  1  0
 14 25  1  0
 14 26  1  0
 15 27  1  0
M  END
>  <Name>  (126) 
UB06_GuaA

>  <canvasUID>  (126) 
130

>  <MW>  (126) 
238.2034

>  <AlogP>  (126) 
-1.9342

>  <HBA>  (126) 
3

>  <HBD>  (126) 
2

>  <RB>  (126) 
3

>  <PSA>  (126) 
152.91

>  <Estate>  (126) 
52.668

>  <Polar>  (126) 
24.647

>  <Chirality>  (126) 
[(3, 'S')]

$$$$

     RDKit          3D

 35 35  0  0  0  0  0  0  0  0999 V2000
   -3.5234   -0.1551   -4.6565 C   0  0  0  0  0  0  0  0  0  0  0  0
   -2.5683   -0.7286   -4.2027 C   0  0  0  0  0  0  0  0  0  0  0  0
   -1.3799   -1.4034   -3.6606 C   0  0  0  0  0  0  0  0  0  0  0  0
   -1.6004   -1.7538   -2.2829 O   0  0  0  0  0  0  0  0  0  0  0  0
   -0.7996   -1.0271   -1.4403 C   0  0  0  0  0  0  0  0  0  0  0  0
   -1.3132    0.0485   -0.7099 C   0  0  0  0  0  0  0  0  0  0  0  0
   -0.4665    0.8020    0.1146 C   0  0  0  0  0  0  0  0  0  0  0  0
   -2.6095    0.4804   -0.7836 O   0  0  0  0  0  0  0  0  0  0  0  0
   -3.5611   -0.5451   -0.4944 C   0  0  0  0  0  0  0  0  0  0  0  0
    0.5338   -1.4042   -1.2858 C   0  0  0  0  0  0  0  0  0  0  0  0
    1.3595   -0.6572   -0.4317 C   0  0  0  0  0  0  0  0  0  0  0  0
    2.7448   -1.0784   -0.3176 N   0  0  0  0  0  4  0  0  0  0  0  0
    3.4427   -1.0041   -1.3415 O   0  0  0  0  0  1  0  0  0  0  0  0
    3.1169   -1.4854    0.7904 O   0  0  0  0  0  0  0  0  0  0  0  0
    0.8885    0.4619    0.2779 C   0  0  0  0  0  0  0  0  0  0  0  0
    1.7568    1.3046    1.1949 C   0  0  0  0  0  0  0  0  0  0  0  0
    1.7504    0.8417    2.6644 C   0  0  2  0  0  0  0  0  0  0  0  0
    0.4391    1.1069    3.3053 N   0  0  0  0  0  0  0  0  0  0  0  0
    2.8555    1.5606    3.4523 C   0  0  0  0  0  0  0  0  0  0  0  0
    3.8092    2.1779    3.0037 O   0  0  0  0  0  0  0  0  0  0  0  0
    2.7078    1.4212    4.7947 O   0  0  0  0  0  0  0  0  0  0  0  0
   -4.3586    0.3728   -5.0552 H   0  0  0  0  0  0  0  0  0  0  0  0
   -1.2142   -2.3416   -4.2035 H   0  0  0  0  0  0  0  0  0  0  0  0
   -0.4946   -0.7711   -3.8090 H   0  0  0  0  0  0  0  0  0  0  0  0
   -0.8806    1.6619    0.6398 H   0  0  0  0  0  0  0  0  0  0  0  0
   -4.4230   -0.0711   -0.0141 H   0  0  0  0  0  0  0  0  0  0  0  0
   -3.9113   -1.0125   -1.4183 H   0  0  0  0  0  0  0  0  0  0  0  0
   -3.1703   -1.3000    0.1965 H   0  0  0  0  0  0  0  0  0  0  0  0
    0.9227   -2.2617   -1.8269 H   0  0  0  0  0  0  0  0  0  0  0  0
    2.7833    1.3248    0.7989 H   0  0  0  0  0  0  0  0  0  0  0  0
    1.4298    2.3565    1.1323 H   0  0  0  0  0  0  0  0  0  0  0  0
    1.9570   -0.2309    2.7404 H   0  0  0  0  0  0  0  0  0  0  0  0
    0.5563    0.9550    4.3116 H   0  0  0  0  0  0  0  0  0  0  0  0
   -0.2337    0.4078    2.9929 H   0  0  0  0  0  0  0  0  0  0  0  0
    3.4541    1.9465    5.1707 H   0  0  0  0  0  0  0  0  0  0  0  0
  1  2  3  0
  2  3  1  0
  3  4  1  0
  4  5  1  0
  5  6  2  0
  6  7  1  0
  6  8  1  0
  8  9  1  0
  5 10  1  0
 10 11  2  0
 11 12  1  0
 12 13  1  0
 12 14  2  0
 11 15  1  0
 15 16  1  0
 16 17  1  0
 17 18  1  0
 17 19  1  0
 19 20  2  0
 19 21  1  0
 15  7  2  0
  1 22  1  0
  3 23  1  0
  3 24  1  0
  7 25  1  0
  9 26  1  0
  9 27  1  0
  9 28  1  0
 10 29  1  0
 16 30  1  0
 16 31  1  0
 17 32  1  6
 18 33  1  0
 18 34  1  0
 21 35  1  0
M  CHG  2  12   1  13  -1
M  END
>  <Name>  (127) 
UB07_adonY

>  <canvasUID>  (127) 
132

>  <MW>  (127) 
294.2601

>  <AlogP>  (127) 
1.9024

>  <HBA>  (127) 
2

>  <HBD>  (127) 
1

>  <RB>  (127) 
7

>  <PSA>  (127) 
124.92

>  <Estate>  (127) 
66.168

>  <Polar>  (127) 
30.333

>  <Chirality>  (127) 
[(16, 'S')]

$$$$

     RDKit          3D

 28 28  0  0  0  0  0  0  0  0999 V2000
   -4.3852   -1.4058   -0.9890 O   0  0  0  0  0  0  0  0  0  0  0  0
   -4.1037   -0.3991   -0.3592 C   0  0  0  0  0  0  0  0  0  0  0  0
   -5.0897    0.4272    0.0676 O   0  0  0  0  0  0  0  0  0  0  0  0
   -2.7042    0.1300   -0.0242 C   0  0  1  0  0  0  0  0  0  0  0  0
   -2.6948    0.6905    1.3503 N   0  0  0  0  0  0  0  0  0  0  0  0
   -1.6615   -0.9890   -0.1845 C   0  0  0  0  0  0  0  0  0  0  0  0
   -0.2356   -0.4897   -0.1045 C   0  0  0  0  0  0  0  0  0  0  0  0
    0.4833   -0.5824    1.0935 C   0  0  0  0  0  0  0  0  0  0  0  0
    1.7945   -0.1079    1.1737 C   0  0  0  0  0  0  0  0  0  0  0  0
    2.4094    0.4705    0.0566 C   0  0  0  0  0  0  0  0  0  0  0  0
    1.6895    0.5629   -1.1420 C   0  0  0  0  0  0  0  0  0  0  0  0
    0.3786    0.0884   -1.2221 C   0  0  0  0  0  0  0  0  0  0  0  0
    3.8283    0.9783    0.1319 C   0  0  0  0  0  0  0  0  0  0  0  0
    4.7388    0.2614   -0.7691 N   0  0  0  0  0  0  0  0  0  0  0  0
    5.0826   -0.8715   -0.3880 N   0  0  0  0  0  4  0  0  0  0  0  0
    5.4076   -1.9048   -0.0337 N   0  0  0  0  0  2  0  0  0  0  0  0
   -5.9103   -0.0374   -0.1989 H   0  0  0  0  0  0  0  0  0  0  0  0
   -2.5013    0.9409   -0.7346 H   0  0  0  0  0  0  0  0  0  0  0  0
   -1.8318    1.2192    1.4767 H   0  0  0  0  0  0  0  0  0  0  0  0
   -3.4625    1.3630    1.4138 H   0  0  0  0  0  0  0  0  0  0  0  0
   -1.7906   -1.4918   -1.1525 H   0  0  0  0  0  0  0  0  0  0  0  0
   -1.8249   -1.7738    0.5668 H   0  0  0  0  0  0  0  0  0  0  0  0
    0.0221   -1.0252    1.9746 H   0  0  0  0  0  0  0  0  0  0  0  0
    2.3297   -0.1978    2.1165 H   0  0  0  0  0  0  0  0  0  0  0  0
    2.1537    1.0002   -2.0240 H   0  0  0  0  0  0  0  0  0  0  0  0
   -0.1559    0.1669   -2.1663 H   0  0  0  0  0  0  0  0  0  0  0  0
    4.2042    0.9370    1.1627 H   0  0  0  0  0  0  0  0  0  0  0  0
    3.8297    2.0396   -0.1450 H   0  0  0  0  0  0  0  0  0  0  0  0
  1  2  2  0
  2  3  1  0
  2  4  1  0
  4  5  1  0
  4  6  1  0
  6  7  1  0
  7  8  2  0
  8  9  1  0
  9 10  2  0
 10 11  1  0
 11 12  2  0
 10 13  1  0
 13 14  1  0
 14 15  2  0
 15 16  2  0
 12  7  1  0
  3 17  1  0
  4 18  1  6
  5 19  1  0
  5 20  1  0
  6 21  1  0
  6 22  1  0
  8 23  1  0
  9 24  1  0
 11 25  1  0
 12 26  1  0
 13 27  1  0
 13 28  1  0
M  CHG  2  15   1  16  -1
M  END
>  <Name>  (128) 
UB08_pAzmF

>  <canvasUID>  (128) 
137

>  <MW>  (128) 
220.2279

>  <AlogP>  (128) 
-0.7395

>  <HBA>  (128) 
0

>  <HBD>  (128) 
0

>  <RB>  (128) 
5

>  <PSA>  (128) 
75.68

>  <Estate>  (128) 
38.334

>  <Polar>  (128) 
25.683

>  <Chirality>  (128) 
[(3, 'S')]

$$$$

     RDKit          3D

 26 26  0  0  0  0  0  0  0  0999 V2000
   -2.2251    1.3757    1.5436 O   0  0  0  0  0  0  0  0  0  0  0  0
   -2.6288    0.5970    0.6953 C   0  0  0  0  0  0  0  0  0  0  0  0
   -3.6339    0.9663   -0.1360 O   0  0  0  0  0  0  0  0  0  0  0  0
   -2.0959   -0.8099    0.4033 C   0  0  1  0  0  0  0  0  0  0  0  0
   -3.2428   -1.7275    0.1732 N   0  0  0  0  0  0  0  0  0  0  0  0
   -1.1630   -0.7758   -0.8189 C   0  0  0  0  0  0  0  0  0  0  0  0
    0.1803   -0.1478   -0.5267 C   0  0  0  0  0  0  0  0  0  0  0  0
    1.2034   -0.9121    0.0594 C   0  0  0  0  0  0  0  0  0  0  0  0
    2.4529   -0.3502    0.3302 C   0  0  0  0  0  0  0  0  0  0  0  0
    3.4271   -1.0883    1.0250 N   0  0  0  0  0  0  0  0  0  0  0  0
    2.6408    1.0164    0.0864 C   0  0  0  0  0  0  0  0  0  0  0  0
    3.8540    1.5692    0.4090 O   0  0  0  0  0  0  0  0  0  0  0  0
    1.6396    1.7924   -0.4920 C   0  0  0  0  0  0  0  0  0  0  0  0
    0.4124    1.2062   -0.8054 C   0  0  0  0  0  0  0  0  0  0  0  0
   -3.8902    1.8488    0.2054 H   0  0  0  0  0  0  0  0  0  0  0  0
   -1.5708   -1.1632    1.2977 H   0  0  0  0  0  0  0  0  0  0  0  0
   -2.9082   -2.6056   -0.2180 H   0  0  0  0  0  0  0  0  0  0  0  0
   -3.8479   -1.3011   -0.5329 H   0  0  0  0  0  0  0  0  0  0  0  0
   -0.9801   -1.7967   -1.1814 H   0  0  0  0  0  0  0  0  0  0  0  0
   -1.6371   -0.2479   -1.6572 H   0  0  0  0  0  0  0  0  0  0  0  0
    1.0231   -1.9534    0.3152 H   0  0  0  0  0  0  0  0  0  0  0  0
    4.3323   -0.6236    0.9565 H   0  0  0  0  0  0  0  0  0  0  0  0
    3.4586   -2.0683    0.7717 H   0  0  0  0  0  0  0  0  0  0  0  0
    3.7726    2.5336    0.3353 H   0  0  0  0  0  0  0  0  0  0  0  0
    1.7939    2.8460   -0.7000 H   0  0  0  0  0  0  0  0  0  0  0  0
   -0.3673    1.8199   -1.2514 H   0  0  0  0  0  0  0  0  0  0  0  0
  1  2  2  0
  2  3  1  0
  2  4  1  0
  4  5  1  0
  4  6  1  0
  6  7  1  0
  7  8  2  0
  8  9  1  0
  9 10  1  0
  9 11  2  0
 11 12  1  0
 11 13  1  0
 13 14  2  0
 14  7  1  0
  3 15  1  0
  4 16  1  1
  5 17  1  0
  5 18  1  0
  6 19  1  0
  6 20  1  0
  8 21  1  0
 10 22  1  0
 10 23  1  0
 12 24  1  0
 13 25  1  0
 14 26  1  0
M  END
>  <Name>  (129) 
UB09_AminoY

>  <canvasUID>  (129) 
138

>  <MW>  (129) 
196.2032

>  <AlogP>  (129) 
-0.1654

>  <HBA>  (129) 
1

>  <HBD>  (129) 
2

>  <RB>  (129) 
3

>  <PSA>  (129) 
109.57

>  <Estate>  (129) 
43.501

>  <Polar>  (129) 
23.265

>  <Chirality>  (129) 
[(3, 'S')]

$$$$

     RDKit          3D

 46 47  0  0  0  0  0  0  0  0999 V2000
    8.0842    1.2159    1.3877 O   0  0  0  0  0  0  0  0  0  0  0  0
    7.6044    0.8671    0.3191 C   0  0  0  0  0  0  0  0  0  0  0  0
    7.7126    1.6586   -0.7681 O   0  0  0  0  0  0  0  0  0  0  0  0
    6.7959   -0.4074    0.0498 C   0  0  1  0  0  0  0  0  0  0  0  0
    7.2932   -1.4936    0.9157 N   0  0  0  0  0  0  0  0  0  0  0  0
    5.3071   -0.1013    0.2790 C   0  0  0  0  0  0  0  0  0  0  0  0
    4.3754   -1.2187   -0.2037 C   0  0  0  0  0  0  0  0  0  0  0  0
    2.8936   -0.9225    0.0485 C   0  0  0  0  0  0  0  0  0  0  0  0
    2.3550    0.2438   -0.7786 C   0  0  0  0  0  0  0  0  0  0  0  0
    0.9359    0.4236   -0.5782 N   0  0  0  0  0  0  0  0  0  0  0  0
   -0.0038   -0.2971   -1.2487 C   0  0  0  0  0  0  0  0  0  0  0  0
    0.2217   -1.1210   -2.1214 O   0  0  0  0  0  0  0  0  0  0  0  0
   -1.2294    0.0398   -0.7862 O   0  0  0  0  0  0  0  0  0  0  0  0
   -2.2926   -0.6700   -1.4232 C   0  0  0  0  0  0  0  0  0  0  0  0
   -3.5873   -0.2224   -0.7931 C   0  0  0  0  0  0  0  0  0  0  0  0
   -4.0711   -0.8494    0.3598 C   0  0  0  0  0  0  0  0  0  0  0  0
   -5.2595   -0.4170    0.9566 C   0  0  0  0  0  0  0  0  0  0  0  0
   -5.9991    0.6566    0.4288 C   0  0  0  0  0  0  0  0  0  0  0  0
   -7.2895    1.1114    1.0678 C   0  0  0  0  0  0  0  0  0  0  0  0
   -8.5647    0.4611    0.6281 C   0  0  0  0  0  0  0  0  0  0  0  0
   -9.6564    0.9621    1.2603 F   0  0  0  0  0  0  0  0  0  0  0  0
   -8.5445   -0.8754    0.8701 F   0  0  0  0  0  0  0  0  0  0  0  0
   -8.7680    0.6253   -0.7049 F   0  0  0  0  0  0  0  0  0  0  0  0
   -7.1941    1.6373    2.4419 N   0  0  0  0  0  0  0  0  0  0  0  0
   -7.3300    2.5003    1.5608 N   0  0  0  0  0  0  0  0  0  0  0  0
   -5.4902    1.2840   -0.7225 C   0  0  0  0  0  0  0  0  0  0  0  0
   -4.3021    0.8566   -1.3233 C   0  0  0  0  0  0  0  0  0  0  0  0
    8.2562    2.4109   -0.4527 H   0  0  0  0  0  0  0  0  0  0  0  0
    6.9715   -0.7061   -0.9900 H   0  0  0  0  0  0  0  0  0  0  0  0
    6.6591   -2.2877    0.8983 H   0  0  0  0  0  0  0  0  0  0  0  0
    7.3212   -1.1574    1.8808 H   0  0  0  0  0  0  0  0  0  0  0  0
    5.0578    0.8289   -0.2464 H   0  0  0  0  0  0  0  0  0  0  0  0
    5.1260    0.0955    1.3444 H   0  0  0  0  0  0  0  0  0  0  0  0
    4.6181   -2.1535    0.3132 H   0  0  0  0  0  0  0  0  0  0  0  0
    4.5366   -1.3975   -1.2736 H   0  0  0  0  0  0  0  0  0  0  0  0
    2.7294   -0.7273    1.1155 H   0  0  0  0  0  0  0  0  0  0  0  0
    2.3196   -1.8276   -0.1879 H   0  0  0  0  0  0  0  0  0  0  0  0
    2.8329    1.1849   -0.4913 H   0  0  0  0  0  0  0  0  0  0  0  0
    2.5424    0.0733   -1.8444 H   0  0  0  0  0  0  0  0  0  0  0  0
    0.5917    1.0161    0.1650 H   0  0  0  0  0  0  0  0  0  0  0  0
   -2.1676   -1.7517   -1.2865 H   0  0  0  0  0  0  0  0  0  0  0  0
   -2.3035   -0.4517   -2.4986 H   0  0  0  0  0  0  0  0  0  0  0  0
   -3.5219   -1.6767    0.8057 H   0  0  0  0  0  0  0  0  0  0  0  0
   -5.6088   -0.9257    1.8545 H   0  0  0  0  0  0  0  0  0  0  0  0
   -6.0225    2.1282   -1.1594 H   0  0  0  0  0  0  0  0  0  0  0  0
   -3.9351    1.3771   -2.2060 H   0  0  0  0  0  0  0  0  0  0  0  0
  1  2  2  0
  2  3  1  0
  2  4  1  0
  4  5  1  0
  4  6  1  0
  6  7  1  0
  7  8  1  0
  8  9  1  0
  9 10  1  0
 10 11  1  0
 11 12  2  0
 11 13  1  0
 13 14  1  0
 14 15  1  0
 15 16  2  0
 16 17  1  0
 17 18  2  0
 18 19  1  0
 19 20  1  0
 20 21  1  0
 20 22  1  0
 20 23  1  0
 19 24  1  0
 24 25  2  0
 18 26  1  0
 26 27  2  0
 27 15  1  0
 25 19  1  0
  3 28  1  0
  4 29  1  6
  5 30  1  0
  5 31  1  0
  6 32  1  0
  6 33  1  0
  7 34  1  0
  7 35  1  0
  8 36  1  0
  8 37  1  0
  9 38  1  0
  9 39  1  0
 10 40  1  0
 14 41  1  0
 14 42  1  0
 16 43  1  0
 17 44  1  0
 26 45  1  0
 27 46  1  0
M  END
>  <Name>  (130) 
UB10_pTmdZLys

>  <canvasUID>  (130) 
139

>  <MW>  (130) 
388.3417

>  <AlogP>  (130) 
2.6184

>  <HBA>  (130) 
4

>  <HBD>  (130) 
1

>  <RB>  (130) 
11

>  <PSA>  (130) 
126.37

>  <Estate>  (130) 
87.001

>  <Polar>  (130) 
37.209

>  <Chirality>  (130) 
[(3, 'S')]

$$$$

     RDKit          3D

 46 47  0  0  0  0  0  0  0  0999 V2000
    4.6161   -3.1519    1.8377 O   0  0  0  0  0  0  0  0  0  0  0  0
    4.5264   -1.9527    1.6157 C   0  0  0  0  0  0  0  0  0  0  0  0
    4.4290   -1.0825    2.6411 O   0  0  0  0  0  0  0  0  0  0  0  0
    4.6101   -1.2726    0.2417 C   0  0  1  0  0  0  0  0  0  0  0  0
    4.5274   -2.2778   -0.8368 N   0  0  0  0  0  0  0  0  0  0  0  0
    3.5613   -0.1671    0.0438 C   0  0  0  0  0  0  0  0  0  0  0  0
    2.0924   -0.5392    0.3060 C   0  0  0  0  0  0  0  0  0  0  0  0
    1.4557   -1.5811   -0.6198 C   0  0  0  0  0  0  0  0  0  0  0  0
    1.4921   -1.2304   -2.1071 C   0  0  0  0  0  0  0  0  0  0  0  0
    0.8113    0.0105   -2.4031 N   0  0  0  0  0  0  0  0  0  0  0  0
   -0.5440    0.1037   -2.4938 C   0  0  0  0  0  0  0  0  0  0  0  0
   -1.3231   -0.8362   -2.4696 O   0  0  0  0  0  0  0  0  0  0  0  0
   -0.8845    1.4104   -2.5898 O   0  0  0  0  0  0  0  0  0  0  0  0
   -2.2910    1.6778   -2.6307 C   0  0  0  0  0  0  0  0  0  0  0  0
   -2.7830    1.9837   -1.2386 C   0  0  0  0  0  0  0  0  0  0  0  0
   -3.3150    0.9626   -0.4336 C   0  0  0  0  0  0  0  0  0  0  0  0
   -3.7571    1.2051    0.8807 C   0  0  0  0  0  0  0  0  0  0  0  0
   -4.3089    0.0931    1.7413 C   0  0  0  0  0  0  0  0  0  0  0  0
   -3.3571   -0.6682    2.6121 C   0  0  0  0  0  0  0  0  0  0  0  0
   -2.4027   -1.2980    1.8790 F   0  0  0  0  0  0  0  0  0  0  0  0
   -3.9756   -1.6180    3.3613 F   0  0  0  0  0  0  0  0  0  0  0  0
   -2.7137    0.1590    3.4786 F   0  0  0  0  0  0  0  0  0  0  0  0
   -5.7130    0.2348    2.1732 N   0  0  0  0  0  0  0  0  0  0  0  0
   -5.5272   -0.5807    1.2564 N   0  0  0  0  0  0  0  0  0  0  0  0
   -3.6502    2.5217    1.3646 C   0  0  0  0  0  0  0  0  0  0  0  0
   -3.1130    3.5454    0.5803 C   0  0  0  0  0  0  0  0  0  0  0  0
   -2.6754    3.2752   -0.7134 C   0  0  0  0  0  0  0  0  0  0  0  0
    4.3897   -1.6620    3.4306 H   0  0  0  0  0  0  0  0  0  0  0  0
    5.6119   -0.8269    0.1910 H   0  0  0  0  0  0  0  0  0  0  0  0
    5.0207   -3.1215   -0.5305 H   0  0  0  0  0  0  0  0  0  0  0  0
    5.0248   -1.9384   -1.6574 H   0  0  0  0  0  0  0  0  0  0  0  0
    3.8093    0.6599    0.7240 H   0  0  0  0  0  0  0  0  0  0  0  0
    3.6593    0.2541   -0.9646 H   0  0  0  0  0  0  0  0  0  0  0  0
    1.9844   -0.8882    1.3402 H   0  0  0  0  0  0  0  0  0  0  0  0
    1.5000    0.3837    0.2486 H   0  0  0  0  0  0  0  0  0  0  0  0
    0.4103   -1.7065   -0.3097 H   0  0  0  0  0  0  0  0  0  0  0  0
    1.9284   -2.5565   -0.4664 H   0  0  0  0  0  0  0  0  0  0  0  0
    2.5169   -1.1333   -2.4747 H   0  0  0  0  0  0  0  0  0  0  0  0
    1.0113   -2.0331   -2.6772 H   0  0  0  0  0  0  0  0  0  0  0  0
    1.3011    0.8878   -2.3059 H   0  0  0  0  0  0  0  0  0  0  0  0
   -2.8654    0.8650   -3.0933 H   0  0  0  0  0  0  0  0  0  0  0  0
   -2.4396    2.5521   -3.2755 H   0  0  0  0  0  0  0  0  0  0  0  0
   -3.3807   -0.0498   -0.8377 H   0  0  0  0  0  0  0  0  0  0  0  0
   -3.9873    2.7562    2.3736 H   0  0  0  0  0  0  0  0  0  0  0  0
   -3.0342    4.5528    0.9817 H   0  0  0  0  0  0  0  0  0  0  0  0
   -2.2482    4.0780   -1.3112 H   0  0  0  0  0  0  0  0  0  0  0  0
  1  2  2  0
  2  3  1  0
  2  4  1  0
  4  5  1  0
  4  6  1  0
  6  7  1  0
  7  8  1  0
  8  9  1  0
  9 10  1  0
 10 11  1  0
 11 12  2  0
 11 13  1  0
 13 14  1  0
 14 15  1  0
 15 16  2  0
 16 17  1  0
 17 18  1  0
 18 19  1  0
 19 20  1  0
 19 21  1  0
 19 22  1  0
 18 23  1  0
 23 24  2  0
 17 25  2  0
 25 26  1  0
 26 27  2  0
 27 15  1  0
 24 18  1  0
  3 28  1  0
  4 29  1  1
  5 30  1  0
  5 31  1  0
  6 32  1  0
  6 33  1  0
  7 34  1  0
  7 35  1  0
  8 36  1  0
  8 37  1  0
  9 38  1  0
  9 39  1  0
 10 40  1  0
 14 41  1  0
 14 42  1  0
 16 43  1  0
 25 44  1  0
 26 45  1  0
 27 46  1  0
M  END
>  <Name>  (131) 
UB11_mTmdZLys

>  <canvasUID>  (131) 
140

>  <MW>  (131) 
388.3417

>  <AlogP>  (131) 
2.6184

>  <HBA>  (131) 
4

>  <HBD>  (131) 
1

>  <RB>  (131) 
11

>  <PSA>  (131) 
126.37

>  <Estate>  (131) 
87.001

>  <Polar>  (131) 
37.209

>  <Chirality>  (131) 
[(3, 'S')]

$$$$

     RDKit          3D

 27 28  0  0  0  0  0  0  0  0999 V2000
   -3.5406   -0.2410   -1.1192 O   0  0  0  0  0  0  0  0  0  0  0  0
   -3.0142    0.2704   -0.1433 C   0  0  0  0  0  0  0  0  0  0  0  0
   -3.3568   -0.1327    1.1007 O   0  0  0  0  0  0  0  0  0  0  0  0
   -1.9920    1.4103   -0.1636 C   0  0  1  0  0  0  0  0  0  0  0  0
   -1.4616    1.7020    1.1959 N   0  0  0  0  0  0  0  0  0  0  0  0
   -0.9000    1.1345   -1.2092 C   0  0  0  0  0  0  0  0  0  0  0  0
   -0.0907   -0.0490   -0.9527 N   0  0  0  0  0  0  0  0  0  0  0  0
   -0.3748   -1.2970   -1.4490 C   0  0  0  0  0  0  0  0  0  0  0  0
    0.6046   -2.1604   -1.0175 C   0  0  0  0  0  0  0  0  0  0  0  0
    1.0871   -0.0858   -0.2307 C   0  0  0  0  0  0  0  0  0  0  0  0
    1.5347   -1.4105   -0.2498 C   0  0  0  0  0  0  0  0  0  0  0  0
    1.7965    0.9230    0.4424 C   0  0  0  0  0  0  0  0  0  0  0  0
    2.9747    0.5703    1.1075 C   0  0  0  0  0  0  0  0  0  0  0  0
    3.4348   -0.7427    1.1019 C   0  0  0  0  0  0  0  0  0  0  0  0
    2.7253   -1.7412    0.4272 C   0  0  0  0  0  0  0  0  0  0  0  0
   -3.9960   -0.8608    0.9485 H   0  0  0  0  0  0  0  0  0  0  0  0
   -2.5493    2.3034   -0.4709 H   0  0  0  0  0  0  0  0  0  0  0  0
   -2.2568    1.6791    1.8417 H   0  0  0  0  0  0  0  0  0  0  0  0
   -0.8935    0.9028    1.4940 H   0  0  0  0  0  0  0  0  0  0  0  0
   -1.3490    1.0007   -2.2017 H   0  0  0  0  0  0  0  0  0  0  0  0
   -0.2198    1.9903   -1.2910 H   0  0  0  0  0  0  0  0  0  0  0  0
   -1.2476   -1.4740   -2.0657 H   0  0  0  0  0  0  0  0  0  0  0  0
    0.6552   -3.2180   -1.2399 H   0  0  0  0  0  0  0  0  0  0  0  0
    1.4458    1.9506    0.4598 H   0  0  0  0  0  0  0  0  0  0  0  0
    3.5378    1.3355    1.6369 H   0  0  0  0  0  0  0  0  0  0  0  0
    4.3539   -0.9964    1.6240 H   0  0  0  0  0  0  0  0  0  0  0  0
    3.0922   -2.7632    0.4235 H   0  0  0  0  0  0  0  0  0  0  0  0
  1  2  2  0
  2  3  1  0
  2  4  1  0
  4  5  1  0
  4  6  1  0
  6  7  1  0
  7  8  1  0
  8  9  2  0
  7 10  1  0
 10 11  2  0
 10 12  1  0
 12 13  2  0
 13 14  1  0
 14 15  2  0
 11  9  1  0
 15 11  1  0
  3 16  1  0
  4 17  1  6
  5 18  1  0
  5 19  1  0
  6 20  1  0
  6 21  1  0
  8 22  1  0
  9 23  1  0
 12 24  1  0
 13 25  1  0
 14 26  1  0
 15 27  1  0
M  END
>  <Name>  (132) 
UB12_IndA

>  <canvasUID>  (132) 
141

>  <MW>  (132) 
204.2252

>  <AlogP>  (132) 
0.8644

>  <HBA>  (132) 
0

>  <HBD>  (132) 
0

>  <RB>  (132) 
3

>  <PSA>  (132) 
68.25

>  <Estate>  (132) 
39.834

>  <Polar>  (132) 
26.486

>  <Chirality>  (132) 
[(3, 'S')]

$$$$

     RDKit          3D

 29 29  0  0  0  0  0  0  0  0999 V2000
   -4.5369   -0.0707   -0.2570 O   0  0  0  0  0  0  0  0  0  0  0  0
   -3.4891    0.4622    0.0778 C   0  0  0  0  0  0  0  0  0  0  0  0
   -3.3930    1.8056    0.1215 O   0  0  0  0  0  0  0  0  0  0  0  0
   -2.2016   -0.2528    0.5124 C   0  0  1  0  0  0  0  0  0  0  0  0
   -2.4416   -1.7135    0.5768 N   0  0  0  0  0  0  0  0  0  0  0  0
   -1.0634    0.0683   -0.4707 C   0  0  0  0  0  0  0  0  0  0  0  0
    0.3060   -0.5615   -0.1279 C   0  0  0  0  0  0  0  0  0  0  0  0
    0.9257    0.0098    1.1655 C   0  0  0  0  0  0  0  0  0  0  0  0
    1.9627    1.0928    0.8881 C   0  0  0  0  0  0  0  0  0  0  0  0
    3.1248    0.5661    0.0454 C   0  0  0  0  0  0  0  0  0  0  0  0
    2.7147   -0.5377   -0.9297 C   0  0  0  0  0  0  0  0  0  0  0  0
    1.2532   -0.4095   -1.3378 C   0  0  0  0  0  0  0  0  0  0  0  0
   -4.2785    2.1175   -0.1608 H   0  0  0  0  0  0  0  0  0  0  0  0
   -1.9711    0.0921    1.5249 H   0  0  0  0  0  0  0  0  0  0  0  0
   -3.2586   -1.8747    1.1700 H   0  0  0  0  0  0  0  0  0  0  0  0
   -2.7423   -2.0283   -0.3484 H   0  0  0  0  0  0  0  0  0  0  0  0
   -0.9418    1.1574   -0.5431 H   0  0  0  0  0  0  0  0  0  0  0  0
   -1.3661   -0.2612   -1.4750 H   0  0  0  0  0  0  0  0  0  0  0  0
    0.1579   -1.6372    0.0338 H   0  0  0  0  0  0  0  0  0  0  0  0
    1.4171   -0.8078    1.7096 H   0  0  0  0  0  0  0  0  0  0  0  0
    0.1618    0.4036    1.8420 H   0  0  0  0  0  0  0  0  0  0  0  0
    2.3492    1.4971    1.8306 H   0  0  0  0  0  0  0  0  0  0  0  0
    1.4807    1.9287    0.3658 H   0  0  0  0  0  0  0  0  0  0  0  0
    3.5667    1.4048   -0.5061 H   0  0  0  0  0  0  0  0  0  0  0  0
    3.9158    0.1811    0.7003 H   0  0  0  0  0  0  0  0  0  0  0  0
    3.3614   -0.5061   -1.8139 H   0  0  0  0  0  0  0  0  0  0  0  0
    2.8741   -1.5170   -0.4612 H   0  0  0  0  0  0  0  0  0  0  0  0
    1.0088   -1.1723   -2.0869 H   0  0  0  0  0  0  0  0  0  0  0  0
    1.1034    0.5632   -1.8244 H   0  0  0  0  0  0  0  0  0  0  0  0
  1  2  2  0
  2  3  1  0
  2  4  1  0
  4  5  1  0
  4  6  1  0
  6  7  1  0
  7  8  1  0
  8  9  1  0
  9 10  1  0
 10 11  1  0
 11 12  1  0
 12  7  1  0
  3 13  1  0
  4 14  1  1
  5 15  1  0
  5 16  1  0
  6 17  1  0
  6 18  1  0
  7 19  1  0
  8 20  1  0
  8 21  1  0
  9 22  1  0
  9 23  1  0
 10 24  1  0
 10 25  1  0
 11 26  1  0
 11 27  1  0
 12 28  1  0
 12 29  1  0
M  END
>  <Name>  (133) 
UB13_CHA

>  <canvasUID>  (133) 
142

>  <MW>  (133) 
171.2368

>  <AlogP>  (133) 
1.5214

>  <HBA>  (133) 
0

>  <HBD>  (133) 
0

>  <RB>  (133) 
3

>  <PSA>  (133) 
63.32

>  <Estate>  (133) 
31.333

>  <Polar>  (133) 
18.589

>  <Chirality>  (133) 
[(3, 'S')]

$$$$

     RDKit          3D

 27 26  0  0  0  0  0  0  0  0999 V2000
    4.0262   -0.7696    0.9764 O   0  0  0  0  0  0  0  0  0  0  0  0
    3.6545    0.2807    0.4779 C   0  0  0  0  0  0  0  0  0  0  0  0
    4.5551    1.2623    0.2255 O   0  0  0  0  0  0  0  0  0  0  0  0
    2.2144    0.6996    0.1429 C   0  0  1  0  0  0  0  0  0  0  0  0
    2.1984    1.5022   -1.1001 N   0  0  0  0  0  0  0  0  0  0  0  0
    1.3068   -0.5310    0.0141 C   0  0  0  0  0  0  0  0  0  0  0  0
   -0.1721   -0.1745   -0.1816 C   0  0  0  0  0  0  0  0  0  0  0  0
   -1.0484   -1.4282   -0.1716 C   0  0  0  0  0  0  0  0  0  0  0  0
   -2.5116   -1.1868   -0.5624 C   0  0  0  0  0  0  0  0  0  0  0  0
   -3.3354   -0.3793    0.4433 C   0  0  0  0  0  0  0  0  0  0  0  0
   -3.0374    1.0470    0.3992 N   0  0  0  0  0  0  0  0  0  0  0  0
    5.4098    0.8524    0.4733 H   0  0  0  0  0  0  0  0  0  0  0  0
    1.8746    1.3275    0.9753 H   0  0  0  0  0  0  0  0  0  0  0  0
    2.9357    2.2071   -1.0186 H   0  0  0  0  0  0  0  0  0  0  0  0
    1.3183    2.0121   -1.1537 H   0  0  0  0  0  0  0  0  0  0  0  0
    1.4044   -1.1433    0.9203 H   0  0  0  0  0  0  0  0  0  0  0  0
    1.6477   -1.1623   -0.8174 H   0  0  0  0  0  0  0  0  0  0  0  0
   -0.3083    0.3549   -1.1312 H   0  0  0  0  0  0  0  0  0  0  0  0
   -0.4772    0.5007    0.6244 H   0  0  0  0  0  0  0  0  0  0  0  0
   -1.0070   -1.8989    0.8183 H   0  0  0  0  0  0  0  0  0  0  0  0
   -0.6312   -2.1555   -0.8798 H   0  0  0  0  0  0  0  0  0  0  0  0
   -2.9885   -2.1704   -0.6635 H   0  0  0  0  0  0  0  0  0  0  0  0
   -2.5613   -0.7231   -1.5556 H   0  0  0  0  0  0  0  0  0  0  0  0
   -4.3993   -0.5142    0.2173 H   0  0  0  0  0  0  0  0  0  0  0  0
   -3.1690   -0.7565    1.4580 H   0  0  0  0  0  0  0  0  0  0  0  0
   -3.2321    1.4057   -0.5350 H   0  0  0  0  0  0  0  0  0  0  0  0
   -3.6672    1.5413    1.0303 H   0  0  0  0  0  0  0  0  0  0  0  0
  1  2  2  0
  2  3  1  0
  2  4  1  0
  4  5  1  0
  4  6  1  0
  6  7  1  0
  7  8  1  0
  8  9  1  0
  9 10  1  0
 10 11  1  0
  3 12  1  0
  4 13  1  1
  5 14  1  0
  5 15  1  0
  6 16  1  0
  6 17  1  0
  7 18  1  0
  7 19  1  0
  8 20  1  0
  8 21  1  0
  9 22  1  0
  9 23  1  0
 10 24  1  0
 10 25  1  0
 11 26  1  0
 11 27  1  0
M  END
>  <Name>  (134) 
UB14_Lyk

>  <canvasUID>  (134) 
143

>  <MW>  (134) 
160.2141

>  <AlogP>  (134) 
-0.3303

>  <HBA>  (134) 
0

>  <HBD>  (134) 
0

>  <RB>  (134) 
6

>  <PSA>  (134) 
89.34

>  <Estate>  (134) 
32.5

>  <Polar>  (134) 
17.044

>  <Chirality>  (134) 
[(3, 'S')]

$$$$

     RDKit          3D

 24 24  0  0  0  0  0  0  0  0999 V2000
    3.5340    0.3059   -1.6609 O   0  0  0  0  0  0  0  0  0  0  0  0
    3.2388   -0.1095   -0.5520 C   0  0  0  0  0  0  0  0  0  0  0  0
    4.2131   -0.4988    0.3025 O   0  0  0  0  0  0  0  0  0  0  0  0
    1.8224   -0.2984    0.0110 C   0  0  1  0  0  0  0  0  0  0  0  0
    1.8540   -0.3732    1.4958 N   0  0  0  0  0  0  0  0  0  0  0  0
    0.9148    0.8443   -0.4775 C   0  0  0  0  0  0  0  0  0  0  0  0
   -0.5584    0.5783   -0.2632 C   0  0  0  0  0  0  0  0  0  0  0  0
   -1.1953    0.9851    0.9198 C   0  0  0  0  0  0  0  0  0  0  0  0
   -2.5525    0.7287    1.1151 C   0  0  0  0  0  0  0  0  0  0  0  0
   -3.1323    1.1336    2.2543 F   0  0  0  0  0  0  0  0  0  0  0  0
   -3.2921    0.0652    0.1453 C   0  0  0  0  0  0  0  0  0  0  0  0
   -4.6226   -0.1816    0.3415 O   0  0  0  0  0  0  0  0  0  0  0  0
   -2.6628   -0.3442   -1.0247 C   0  0  0  0  0  0  0  0  0  0  0  0
   -3.3736   -0.9875   -1.9629 F   0  0  0  0  0  0  0  0  0  0  0  0
   -1.3085   -0.0966   -1.2379 C   0  0  0  0  0  0  0  0  0  0  0  0
    5.0425   -0.3501   -0.1997 H   0  0  0  0  0  0  0  0  0  0  0  0
    1.4633   -1.2633   -0.3658 H   0  0  0  0  0  0  0  0  0  0  0  0
    2.5625   -1.0695    1.7459 H   0  0  0  0  0  0  0  0  0  0  0  0
    2.2290    0.5032    1.8602 H   0  0  0  0  0  0  0  0  0  0  0  0
    1.0733    1.0249   -1.5493 H   0  0  0  0  0  0  0  0  0  0  0  0
    1.1927    1.7897    0.0086 H   0  0  0  0  0  0  0  0  0  0  0  0
   -0.6430    1.4951    1.7045 H   0  0  0  0  0  0  0  0  0  0  0  0
   -4.9469   -0.6570   -0.4454 H   0  0  0  0  0  0  0  0  0  0  0  0
   -0.8524   -0.4323   -2.1651 H   0  0  0  0  0  0  0  0  0  0  0  0
  1  2  2  0
  2  3  1  0
  2  4  1  0
  4  5  1  0
  4  6  1  0
  6  7  1  0
  7  8  2  0
  8  9  1  0
  9 10  1  0
  9 11  2  0
 11 12  1  0
 11 13  1  0
 13 14  1  0
 13 15  2  0
 15  7  1  0
  3 16  1  0
  4 17  1  6
  5 18  1  0
  5 19  1  0
  6 20  1  0
  6 21  1  0
  8 22  1  0
 12 23  1  0
 15 24  1  0
M  END
>  <Name>  (135) 
UB15_F2Y

>  <canvasUID>  (135) 
144

>  <MW>  (135) 
217.1695

>  <AlogP>  (135) 
0.9922

>  <HBA>  (135) 
1

>  <HBD>  (135) 
1

>  <RB>  (135) 
3

>  <PSA>  (135) 
83.55

>  <Estate>  (135) 
55.168

>  <Polar>  (135) 
21.732

>  <Chirality>  (135) 
[(3, 'S')]

$$$$

     RDKit          3D

 24 24  0  0  0  0  0  0  0  0999 V2000
   -3.5112    0.2375   -1.9150 O   0  0  0  0  0  0  0  0  0  0  0  0
   -3.2802    0.1943   -0.7177 C   0  0  0  0  0  0  0  0  0  0  0  0
   -4.3037    0.1817    0.1704 O   0  0  0  0  0  0  0  0  0  0  0  0
   -1.9076    0.2128   -0.0331 C   0  0  1  0  0  0  0  0  0  0  0  0
   -1.9152   -0.7051    1.1339 N   0  0  0  0  0  0  0  0  0  0  0  0
   -0.8156   -0.1813   -1.0417 C   0  0  0  0  0  0  0  0  0  0  0  0
    0.5891   -0.0681   -0.4965 C   0  0  0  0  0  0  0  0  0  0  0  0
    1.1632    1.1894   -0.2639 C   0  0  0  0  0  0  0  0  0  0  0  0
    0.4512    2.2955   -0.5267 F   0  0  0  0  0  0  0  0  0  0  0  0
    2.4559    1.3083    0.2416 C   0  0  0  0  0  0  0  0  0  0  0  0
    2.9748    2.5260    0.4578 F   0  0  0  0  0  0  0  0  0  0  0  0
    3.1968    0.1677    0.5232 C   0  0  0  0  0  0  0  0  0  0  0  0
    4.4655    0.2782    1.0219 O   0  0  0  0  0  0  0  0  0  0  0  0
    2.6355   -1.0857    0.2970 C   0  0  0  0  0  0  0  0  0  0  0  0
    3.3518   -2.1848    0.5735 F   0  0  0  0  0  0  0  0  0  0  0  0
    1.3429   -1.2149   -0.2071 C   0  0  0  0  0  0  0  0  0  0  0  0
   -5.1026    0.1692   -0.3976 H   0  0  0  0  0  0  0  0  0  0  0  0
   -1.7531    1.2372    0.3261 H   0  0  0  0  0  0  0  0  0  0  0  0
   -2.7697   -0.5122    1.6653 H   0  0  0  0  0  0  0  0  0  0  0  0
   -1.1409   -0.4626    1.7504 H   0  0  0  0  0  0  0  0  0  0  0  0
   -0.8816    0.4542   -1.9353 H   0  0  0  0  0  0  0  0  0  0  0  0
   -0.9925   -1.2032   -1.4048 H   0  0  0  0  0  0  0  0  0  0  0  0
    4.8146   -0.6247    1.1430 H   0  0  0  0  0  0  0  0  0  0  0  0
    0.9327   -2.2094   -0.3648 H   0  0  0  0  0  0  0  0  0  0  0  0
  1  2  2  0
  2  3  1  0
  2  4  1  0
  4  5  1  0
  4  6  1  0
  6  7  1  0
  7  8  2  0
  8  9  1  0
  8 10  1  0
 10 11  1  0
 10 12  2  0
 12 13  1  0
 12 14  1  0
 14 15  1  0
 14 16  2  0
 16  7  1  0
  3 17  1  0
  4 18  1  1
  5 19  1  0
  5 20  1  0
  6 21  1  0
  6 22  1  0
 13 23  1  0
 16 24  1  0
M  END
>  <Name>  (136) 
UB16_F3Y

>  <canvasUID>  (136) 
145

>  <MW>  (136) 
235.1599

>  <AlogP>  (136) 
1.1977

>  <HBA>  (136) 
1

>  <HBD>  (136) 
1

>  <RB>  (136) 
3

>  <PSA>  (136) 
83.55

>  <Estate>  (136) 
62.835

>  <Polar>  (136) 
21.641

>  <Chirality>  (136) 
[(3, 'S')]

$$$$

     RDKit          3D

 28 28  0  0  0  0  0  0  0  0999 V2000
    4.2635   -0.3745   -0.8810 O   0  0  0  0  0  0  0  0  0  0  0  0
    3.6780    0.4601   -0.2100 C   0  0  0  0  0  0  0  0  0  0  0  0
    4.3632    1.5095    0.3010 O   0  0  0  0  0  0  0  0  0  0  0  0
    2.1919    0.4478    0.1824 C   0  0  1  0  0  0  0  0  0  0  0  0
    1.7739    1.7845    0.6920 N   0  0  0  0  0  0  0  0  0  0  0  0
    1.3378    0.0125   -1.0226 C   0  0  0  0  0  0  0  0  0  0  0  0
    0.0060   -0.5895   -0.6278 C   0  0  0  0  0  0  0  0  0  0  0  0
   -1.0503    0.2308   -0.1952 C   0  0  0  0  0  0  0  0  0  0  0  0
   -2.2814   -0.3185    0.1788 C   0  0  0  0  0  0  0  0  0  0  0  0
   -3.3637    0.4015    0.6130 O   0  0  0  0  0  0  0  0  0  0  0  0
   -3.1721    1.7910    0.8356 C   0  0  0  0  0  0  0  0  0  0  0  0
   -2.4484   -1.7074    0.1052 C   0  0  0  0  0  0  0  0  0  0  0  0
   -3.6516   -2.2575    0.4621 O   0  0  0  0  0  0  0  0  0  0  0  0
   -1.4098   -2.5355   -0.3194 C   0  0  0  0  0  0  0  0  0  0  0  0
   -0.1844   -1.9764   -0.6818 C   0  0  0  0  0  0  0  0  0  0  0  0
    5.2827    1.3611   -0.0064 H   0  0  0  0  0  0  0  0  0  0  0  0
    2.0982   -0.2694    1.0067 H   0  0  0  0  0  0  0  0  0  0  0  0
    1.9365    2.4725   -0.0446 H   0  0  0  0  0  0  0  0  0  0  0  0
    2.4426    2.0455    1.4224 H   0  0  0  0  0  0  0  0  0  0  0  0
    1.8799   -0.7219   -1.6325 H   0  0  0  0  0  0  0  0  0  0  0  0
    1.1622    0.8585   -1.7013 H   0  0  0  0  0  0  0  0  0  0  0  0
   -0.8826    1.3026   -0.1556 H   0  0  0  0  0  0  0  0  0  0  0  0
   -2.3814    1.9714    1.5715 H   0  0  0  0  0  0  0  0  0  0  0  0
   -4.1034    2.1957    1.2437 H   0  0  0  0  0  0  0  0  0  0  0  0
   -2.9669    2.3150   -0.1036 H   0  0  0  0  0  0  0  0  0  0  0  0
   -3.6039   -3.2189    0.3507 H   0  0  0  0  0  0  0  0  0  0  0  0
   -1.5364   -3.6120   -0.3729 H   0  0  0  0  0  0  0  0  0  0  0  0
    0.6198   -2.6315   -1.0104 H   0  0  0  0  0  0  0  0  0  0  0  0
  1  2  2  0
  2  3  1  0
  2  4  1  0
  4  5  1  0
  4  6  1  0
  6  7  1  0
  7  8  2  0
  8  9  1  0
  9 10  1  0
 10 11  1  0
  9 12  2  0
 12 13  1  0
 12 14  1  0
 14 15  2  0
 15  7  1  0
  3 16  1  0
  4 17  1  1
  5 18  1  0
  5 19  1  0
  6 20  1  0
  6 21  1  0
  8 22  1  0
 11 23  1  0
 11 24  1  0
 11 25  1  0
 13 26  1  0
 14 27  1  0
 15 28  1  0
M  END
>  <Name>  (137) 
UB17_3OMeY

>  <canvasUID>  (137) 
146

>  <MW>  (137) 
211.2145

>  <AlogP>  (137) 
0.5648

>  <HBA>  (137) 
2

>  <HBD>  (137) 
1

>  <RB>  (137) 
4

>  <PSA>  (137) 
92.78

>  <Estate>  (137) 
45.001

>  <Polar>  (137) 
24.386

>  <Chirality>  (137) 
[(3, 'S')]

$$$$

     RDKit          3D

 31 31  0  0  0  0  0  0  0  0999 V2000
   -5.4757    1.2390   -0.0064 C   0  0  0  0  0  0  0  0  0  0  0  0
   -5.1436    0.1190   -0.6626 C   0  0  0  0  0  0  0  0  0  0  0  0
   -3.7505   -0.3478   -0.9137 C   0  0  0  0  0  0  0  0  0  0  0  0
   -3.5251   -0.9634   -1.9482 O   0  0  0  0  0  0  0  0  0  0  0  0
   -2.8748   -0.0703    0.1106 N   0  0  0  0  0  0  0  0  0  0  0  0
   -1.4966   -0.3640    0.1640 C   0  0  0  0  0  0  0  0  0  0  0  0
   -0.7823   -0.9488   -0.8806 C   0  0  0  0  0  0  0  0  0  0  0  0
    0.5891   -1.1986   -0.7510 C   0  0  0  0  0  0  0  0  0  0  0  0
   -0.8163   -0.0323    1.3412 C   0  0  0  0  0  0  0  0  0  0  0  0
    0.5534   -0.2832    1.4719 C   0  0  0  0  0  0  0  0  0  0  0  0
    1.2730   -0.8658    0.4249 C   0  0  0  0  0  0  0  0  0  0  0  0
    2.7565   -1.1373    0.5505 C   0  0  0  0  0  0  0  0  0  0  0  0
    3.6757    0.0978    0.5153 C   0  0  2  0  0  0  0  0  0  0  0  0
    3.5803    0.8990    1.7614 N   0  0  0  0  0  0  0  0  0  0  0  0
    3.4394    0.9856   -0.7128 C   0  0  0  0  0  0  0  0  0  0  0  0
    3.4011    2.2080   -0.7274 O   0  0  0  0  0  0  0  0  0  0  0  0
    3.3858    0.2983   -1.8723 O   0  0  0  0  0  0  0  0  0  0  0  0
   -6.5199    1.5213    0.0914 H   0  0  0  0  0  0  0  0  0  0  0  0
   -4.7405    1.9196    0.4089 H   0  0  0  0  0  0  0  0  0  0  0  0
   -5.9068   -0.4946   -1.1320 H   0  0  0  0  0  0  0  0  0  0  0  0
   -3.2628    0.3565    0.9400 H   0  0  0  0  0  0  0  0  0  0  0  0
   -1.2605   -1.2209   -1.8162 H   0  0  0  0  0  0  0  0  0  0  0  0
    1.1175   -1.6535   -1.5865 H   0  0  0  0  0  0  0  0  0  0  0  0
   -1.3371    0.4288    2.1759 H   0  0  0  0  0  0  0  0  0  0  0  0
    1.0558   -0.0105    2.3977 H   0  0  0  0  0  0  0  0  0  0  0  0
    3.0595   -1.8221   -0.2532 H   0  0  0  0  0  0  0  0  0  0  0  0
    2.9269   -1.7006    1.4782 H   0  0  0  0  0  0  0  0  0  0  0  0
    4.7170   -0.2408    0.4410 H   0  0  0  0  0  0  0  0  0  0  0  0
    3.9857    1.8209    1.5798 H   0  0  0  0  0  0  0  0  0  0  0  0
    4.1477    0.4648    2.4862 H   0  0  0  0  0  0  0  0  0  0  0  0
    3.2283    0.9962   -2.5432 H   0  0  0  0  0  0  0  0  0  0  0  0
  1  2  2  3
  2  3  1  0
  3  4  2  0
  3  5  1  0
  5  6  1  0
  6  7  2  0
  7  8  1  0
  6  9  1  0
  9 10  2  0
 10 11  1  0
 11 12  1  0
 12 13  1  0
 13 14  1  0
 13 15  1  0
 15 16  2  0
 15 17  1  0
 11  8  2  0
  1 18  1  0
  1 19  1  0
  2 20  1  0
  5 21  1  0
  7 22  1  0
  8 23  1  0
  9 24  1  0
 10 25  1  0
 12 26  1  0
 12 27  1  0
 13 28  1  6
 14 29  1  0
 14 30  1  0
 17 31  1  0
M  END
>  <Name>  (138) 
UB18_AcrF

>  <canvasUID>  (138) 
147

>  <MW>  (138) 
234.2512

>  <AlogP>  (138) 
0.5599

>  <HBA>  (138) 
1

>  <HBD>  (138) 
1

>  <RB>  (138) 
5

>  <PSA>  (138) 
92.42

>  <Estate>  (138) 
50.001

>  <Polar>  (138) 
28.027

>  <Chirality>  (138) 
[(12, 'S')]

$$$$

     RDKit          3D

 31 31  0  0  0  0  0  0  0  0999 V2000
   -5.3091   -1.2142   -1.0046 O   0  0  0  0  0  0  0  0  0  0  0  0
   -4.7206   -0.2738   -0.4941 C   0  0  0  0  0  0  0  0  0  0  0  0
   -5.3278    0.4713    0.4586 O   0  0  0  0  0  0  0  0  0  0  0  0
   -3.2706    0.1331   -0.7591 C   0  0  1  0  0  0  0  0  0  0  0  0
   -3.1178    1.6040   -0.6357 N   0  0  0  0  0  0  0  0  0  0  0  0
   -2.3773   -0.6549    0.2146 C   0  0  0  0  0  0  0  0  0  0  0  0
   -0.8976   -0.4747   -0.0328 C   0  0  0  0  0  0  0  0  0  0  0  0
   -0.1098    0.2636    0.8596 C   0  0  0  0  0  0  0  0  0  0  0  0
    1.2587    0.4386    0.6269 C   0  0  0  0  0  0  0  0  0  0  0  0
    1.8542   -0.1152   -0.5053 C   0  0  0  0  0  0  0  0  0  0  0  0
    1.0767   -0.8694   -1.3853 C   0  0  0  0  0  0  0  0  0  0  0  0
   -0.2899   -1.0455   -1.1569 C   0  0  0  0  0  0  0  0  0  0  0  0
    3.1797   -0.0307   -0.8317 O   0  0  0  0  0  0  0  0  0  0  0  0
    3.9277    1.0592   -0.2918 C   0  0  0  0  0  0  0  0  0  0  0  0
    4.7114    0.6866    0.9391 C   0  0  0  0  0  0  0  0  0  0  0  0
    4.7633   -0.5180    1.5247 C   0  0  0  0  0  0  0  0  0  0  0  0
   -6.2367    0.1066    0.4925 H   0  0  0  0  0  0  0  0  0  0  0  0
   -3.0459   -0.1286   -1.7993 H   0  0  0  0  0  0  0  0  0  0  0  0
   -2.1244    1.8336   -0.6189 H   0  0  0  0  0  0  0  0  0  0  0  0
   -3.4998    1.8853    0.2695 H   0  0  0  0  0  0  0  0  0  0  0  0
   -2.6171   -0.3774    1.2504 H   0  0  0  0  0  0  0  0  0  0  0  0
   -2.6061   -1.7275    0.1475 H   0  0  0  0  0  0  0  0  0  0  0  0
   -0.5515    0.7032    1.7515 H   0  0  0  0  0  0  0  0  0  0  0  0
    1.8375    0.9919    1.3594 H   0  0  0  0  0  0  0  0  0  0  0  0
    1.5390   -1.3214   -2.2594 H   0  0  0  0  0  0  0  0  0  0  0  0
   -0.8711   -1.6354   -1.8624 H   0  0  0  0  0  0  0  0  0  0  0  0
    3.3049    1.9434   -0.1102 H   0  0  0  0  0  0  0  0  0  0  0  0
    4.6465    1.3536   -1.0656 H   0  0  0  0  0  0  0  0  0  0  0  0
    5.2944    1.4951    1.3750 H   0  0  0  0  0  0  0  0  0  0  0  0
    5.3676   -0.6822    2.4111 H   0  0  0  0  0  0  0  0  0  0  0  0
    4.2114   -1.3675    1.1326 H   0  0  0  0  0  0  0  0  0  0  0  0
  1  2  2  0
  2  3  1  0
  2  4  1  0
  4  5  1  0
  4  6  1  0
  6  7  1  0
  7  8  2  0
  8  9  1  0
  9 10  2  0
 10 11  1  0
 11 12  2  0
 10 13  1  0
 13 14  1  0
 14 15  1  0
 15 16  2  3
 12  7  1  0
  3 17  1  0
  4 18  1  6
  5 19  1  0
  5 20  1  0
  6 21  1  0
  6 22  1  0
  8 23  1  0
  9 24  1  0
 11 25  1  0
 12 26  1  0
 14 27  1  0
 14 28  1  0
 15 29  1  0
 16 30  1  0
 16 31  1  0
M  END
>  <Name>  (139) 
UB19_OallylY

>  <canvasUID>  (139) 
148

>  <MW>  (139) 
221.2524

>  <AlogP>  (139) 
1.449

>  <HBA>  (139) 
1

>  <HBD>  (139) 
0

>  <RB>  (139) 
6

>  <PSA>  (139) 
72.55

>  <Estate>  (139) 
43.834

>  <Polar>  (139) 
27.227

>  <Chirality>  (139) 
[(3, 'S')]

$$$$

     RDKit          3D

 33 34  0  0  0  0  0  0  0  0999 V2000
   -4.1429    1.9433    0.6060 O   0  0  0  0  0  0  0  0  0  0  0  0
   -3.6596    1.0219    1.2493 C   0  0  0  0  0  0  0  0  0  0  0  0
   -2.9759    1.2632    2.3854 O   0  0  0  0  0  0  0  0  0  0  0  0
   -3.7495   -0.4644    0.8985 C   0  0  1  0  0  0  0  0  0  0  0  0
   -5.1804   -0.8445    0.8039 N   0  0  0  0  0  0  0  0  0  0  0  0
   -3.0195   -0.7278   -0.4291 C   0  0  0  0  0  0  0  0  0  0  0  0
   -1.5257   -0.5202   -0.3400 C   0  0  0  0  0  0  0  0  0  0  0  0
   -0.7078   -1.4835    0.2604 C   0  0  0  0  0  0  0  0  0  0  0  0
    0.6729   -1.2817    0.3547 C   0  0  0  0  0  0  0  0  0  0  0  0
    1.2721   -0.1145   -0.1441 C   0  0  0  0  0  0  0  0  0  0  0  0
    0.4414    0.8459   -0.7420 C   0  0  0  0  0  0  0  0  0  0  0  0
   -0.9394    0.6479   -0.8396 C   0  0  0  0  0  0  0  0  0  0  0  0
    2.7256    0.0960   -0.0424 C   0  0  0  0  0  0  0  0  0  0  0  0
    3.6317   -0.8598   -0.5317 C   0  0  0  0  0  0  0  0  0  0  0  0
    5.0118   -0.6606   -0.4361 C   0  0  0  0  0  0  0  0  0  0  0  0
    5.5096    0.4991    0.1524 C   0  0  0  0  0  0  0  0  0  0  0  0
    4.6292    1.4592    0.6444 C   0  0  0  0  0  0  0  0  0  0  0  0
    3.2495    1.2588    0.5469 C   0  0  0  0  0  0  0  0  0  0  0  0
   -3.0185    2.2361    2.4867 H   0  0  0  0  0  0  0  0  0  0  0  0
   -3.3022   -1.0504    1.7094 H   0  0  0  0  0  0  0  0  0  0  0  0
   -5.6386   -0.2174    0.1386 H   0  0  0  0  0  0  0  0  0  0  0  0
   -5.2597   -1.7828    0.4164 H   0  0  0  0  0  0  0  0  0  0  0  0
   -3.1971   -1.7615   -0.7558 H   0  0  0  0  0  0  0  0  0  0  0  0
   -3.4294   -0.0920   -1.2256 H   0  0  0  0  0  0  0  0  0  0  0  0
   -1.1356   -2.3989    0.6633 H   0  0  0  0  0  0  0  0  0  0  0  0
    1.2828   -2.0432    0.8371 H   0  0  0  0  0  0  0  0  0  0  0  0
    0.8703    1.7591   -1.1502 H   0  0  0  0  0  0  0  0  0  0  0  0
   -1.5504    1.4164   -1.3099 H   0  0  0  0  0  0  0  0  0  0  0  0
    3.2638   -1.7676   -1.0056 H   0  0  0  0  0  0  0  0  0  0  0  0
    5.6957   -1.4107   -0.8242 H   0  0  0  0  0  0  0  0  0  0  0  0
    6.5826    0.6545    0.2274 H   0  0  0  0  0  0  0  0  0  0  0  0
    5.0140    2.3642    1.1072 H   0  0  0  0  0  0  0  0  0  0  0  0
    2.5792    2.0163    0.9481 H   0  0  0  0  0  0  0  0  0  0  0  0
  1  2  2  0
  2  3  1  0
  2  4  1  0
  4  5  1  0
  4  6  1  0
  6  7  1  0
  7  8  2  0
  8  9  1  0
  9 10  2  0
 10 11  1  0
 11 12  2  0
 10 13  1  0
 13 14  2  0
 14 15  1  0
 15 16  2  0
 16 17  1  0
 17 18  2  0
 12  7  1  0
 18 13  1  0
  3 19  1  0
  4 20  1  1
  5 21  1  0
  5 22  1  0
  6 23  1  0
  6 24  1  0
  8 25  1  0
  9 26  1  0
 11 27  1  0
 12 28  1  0
 14 29  1  0
 15 30  1  0
 16 31  1  0
 17 32  1  0
 18 33  1  0
M  END
>  <Name>  (140) 
UB20_PheF

>  <canvasUID>  (140) 
149

>  <MW>  (140) 
241.2851

>  <AlogP>  (140) 
2.367

>  <HBA>  (140) 
0

>  <HBD>  (140) 
0

>  <RB>  (140) 
4

>  <PSA>  (140) 
63.32

>  <Estate>  (140) 
45.501

>  <Polar>  (140) 
34.201

>  <Chirality>  (140) 
[(3, 'S')]

$$$$

     RDKit          3D

 36 36  0  0  0  0  0  0  0  0999 V2000
    3.6073    2.3162    0.9955 O   0  0  0  0  0  0  0  0  0  0  0  0
    4.2489    1.4821    0.3795 C   0  0  0  0  0  0  0  0  0  0  0  0
    5.3493    1.8617   -0.3188 O   0  0  0  0  0  0  0  0  0  0  0  0
    3.9829   -0.0255    0.2482 C   0  0  1  0  0  0  0  0  0  0  0  0
    5.2302   -0.7603    0.5844 N   0  0  0  0  0  0  0  0  0  0  0  0
    2.8376   -0.4887    1.1629 C   0  0  0  0  0  0  0  0  0  0  0  0
    1.4718   -0.2563    0.5530 C   0  0  0  0  0  0  0  0  0  0  0  0
    0.9518   -1.1623   -0.3833 C   0  0  0  0  0  0  0  0  0  0  0  0
   -0.3004   -0.9429   -0.9604 C   0  0  0  0  0  0  0  0  0  0  0  0
   -1.0530    0.1671   -0.5863 C   0  0  0  0  0  0  0  0  0  0  0  0
   -0.5294    1.0971    0.3070 C   0  0  0  0  0  0  0  0  0  0  0  0
    0.7218    0.8788    0.8872 C   0  0  0  0  0  0  0  0  0  0  0  0
   -2.2472    0.4087   -1.2021 O   0  0  0  0  0  0  0  0  0  0  0  0
   -3.4321   -0.0948   -0.5425 C   0  0  0  0  0  0  0  0  0  0  0  0
   -3.6870    0.5882    0.8089 C   0  0  0  0  0  0  0  0  0  0  0  0
   -4.5832    0.2799   -1.4923 C   0  0  0  0  0  0  0  0  0  0  0  0
   -3.4215   -1.6226   -0.3847 C   0  0  0  0  0  0  0  0  0  0  0  0
    5.4099    2.8227   -0.1357 H   0  0  0  0  0  0  0  0  0  0  0  0
    3.7425   -0.2189   -0.8044 H   0  0  0  0  0  0  0  0  0  0  0  0
    5.1392   -1.7263    0.2744 H   0  0  0  0  0  0  0  0  0  0  0  0
    5.9839   -0.3508    0.0255 H   0  0  0  0  0  0  0  0  0  0  0  0
    2.8949   -0.0042    2.1464 H   0  0  0  0  0  0  0  0  0  0  0  0
    2.9226   -1.5662    1.3618 H   0  0  0  0  0  0  0  0  0  0  0  0
    1.5209   -2.0422   -0.6743 H   0  0  0  0  0  0  0  0  0  0  0  0
   -0.6847   -1.6364   -1.7024 H   0  0  0  0  0  0  0  0  0  0  0  0
   -1.0860    1.9971    0.5503 H   0  0  0  0  0  0  0  0  0  0  0  0
    1.1131    1.6112    1.5913 H   0  0  0  0  0  0  0  0  0  0  0  0
   -4.6715    0.3235    1.2102 H   0  0  0  0  0  0  0  0  0  0  0  0
   -3.6349    1.6785    0.7136 H   0  0  0  0  0  0  0  0  0  0  0  0
   -2.9419    0.2933    1.5553 H   0  0  0  0  0  0  0  0  0  0  0  0
   -4.4343   -0.1707   -2.4807 H   0  0  0  0  0  0  0  0  0  0  0  0
   -4.6210    1.3644   -1.6492 H   0  0  0  0  0  0  0  0  0  0  0  0
   -5.5545   -0.0472   -1.1065 H   0  0  0  0  0  0  0  0  0  0  0  0
   -2.6644   -1.9472    0.3371 H   0  0  0  0  0  0  0  0  0  0  0  0
   -4.3897   -1.9933   -0.0305 H   0  0  0  0  0  0  0  0  0  0  0  0
   -3.1919   -2.1141   -1.3366 H   0  0  0  0  0  0  0  0  0  0  0  0
  1  2  2  0
  2  3  1  0
  2  4  1  0
  4  5  1  0
  4  6  1  0
  6  7  1  0
  7  8  2  0
  8  9  1  0
  9 10  2  0
 10 11  1  0
 11 12  2  0
 10 13  1  0
 13 14  1  0
 14 15  1  0
 14 16  1  0
 14 17  1  0
 12  7  1  0
  3 18  1  0
  4 19  1  6
  5 20  1  0
  5 21  1  0
  6 22  1  0
  6 23  1  0
  8 24  1  0
  9 25  1  0
 11 26  1  0
 12 27  1  0
 15 28  1  0
 15 29  1  0
 15 30  1  0
 16 31  1  0
 16 32  1  0
 16 33  1  0
 17 34  1  0
 17 35  1  0
 17 36  1  0
M  END
>  <Name>  (141) 
UB21_OtBuY

>  <canvasUID>  (141) 
150

>  <MW>  (141) 
237.2949

>  <AlogP>  (141) 
1.7635

>  <HBA>  (141) 
1

>  <HBD>  (141) 
0

>  <RB>  (141) 
5

>  <PSA>  (141) 
72.55

>  <Estate>  (141) 
44.584

>  <Polar>  (141) 
29.254

>  <Chirality>  (141) 
[(3, 'S')]

$$$$

     RDKit          3D

 24 23  0  0  0  0  0  0  0  0999 V2000
    1.9615   -2.6565   -2.4286 H   0  0  0  0  0  0  0  0  0  0  0  0
    1.8848   -1.7948   -1.8906 N   0  0  0  0  0  0  0  0  0  0  0  0
    2.3840   -1.9575   -0.7167 C   0  0  0  0  0  0  0  0  0  0  0  0
    2.9379   -3.1347   -0.3365 N   0  0  0  0  0  0  0  0  0  0  0  0
    2.4400   -1.0249    0.2802 N   0  0  0  0  0  0  0  0  0  0  0  0
    1.8018    0.1941    0.0112 O   0  0  0  0  0  0  0  0  0  0  0  0
    0.4058    0.0577    0.3120 C   0  0  0  0  0  0  0  0  0  0  0  0
   -0.2546    1.4166    0.0847 C   0  0  0  0  0  0  0  0  0  0  0  0
   -1.7811    1.3513    0.1494 C   0  0  2  0  0  0  0  0  0  0  0  0
   -2.3330    2.6388   -0.3347 N   0  0  0  0  0  0  0  0  0  0  0  0
   -2.3059    1.0770    1.5679 C   0  0  0  0  0  0  0  0  0  0  0  0
   -1.6954    0.6001    2.5104 O   0  0  0  0  0  0  0  0  0  0  0  0
   -3.6245    1.3646    1.6957 O   0  0  0  0  0  0  0  0  0  0  0  0
    3.1450   -3.7618   -1.1036 H   0  0  0  0  0  0  0  0  0  0  0  0
    3.7626   -3.0054    0.2404 H   0  0  0  0  0  0  0  0  0  0  0  0
    2.3101   -1.3705    1.2245 H   0  0  0  0  0  0  0  0  0  0  0  0
   -0.0474   -0.6915   -0.3464 H   0  0  0  0  0  0  0  0  0  0  0  0
    0.2944   -0.2658    1.3515 H   0  0  0  0  0  0  0  0  0  0  0  0
    0.0624    1.7902   -0.8987 H   0  0  0  0  0  0  0  0  0  0  0  0
    0.1399    2.1333    0.8171 H   0  0  0  0  0  0  0  0  0  0  0  0
   -2.1549    0.5465   -0.4944 H   0  0  0  0  0  0  0  0  0  0  0  0
   -3.3470    2.6123   -0.2010 H   0  0  0  0  0  0  0  0  0  0  0  0
   -2.1723    2.7153   -1.3381 H   0  0  0  0  0  0  0  0  0  0  0  0
   -3.8141    1.1656    2.6361 H   0  0  0  0  0  0  0  0  0  0  0  0
  1  2  1  0
  2  3  2  0
  3  4  1  0
  3  5  1  0
  5  6  1  0
  6  7  1  0
  7  8  1  0
  8  9  1  0
  9 10  1  0
  9 11  1  0
 11 12  2  0
 11 13  1  0
  4 14  1  0
  4 15  1  0
  5 16  1  0
  7 17  1  0
  7 18  1  0
  8 19  1  0
  8 20  1  0
  9 21  1  6
 10 22  1  0
 10 23  1  0
 13 24  1  0
M  END
>  <Name>  (142) 
UB22_CanR

>  <canvasUID>  (142) 
151

>  <MW>  (142) 
176.1738

>  <AlogP>  (142) 
-2.1108

>  <HBA>  (142) 
2

>  <HBD>  (142) 
1

>  <RB>  (142) 
6

>  <PSA>  (142) 
134.45

>  <Estate>  (142) 
40.667

>  <Polar>  (142) 
16.296

>  <Chirality>  (142) 
[(8, 'S')]

$$$$

     RDKit          3D

 26 25  0  0  0  0  0  0  0  0999 V2000
    3.6554    1.8342    0.7996 O   0  0  0  0  0  0  0  0  0  0  0  0
    3.5067    0.6797    0.4334 C   0  0  0  0  0  0  0  0  0  0  0  0
    4.5018   -0.2191    0.6184 O   0  0  0  0  0  0  0  0  0  0  0  0
    2.2838    0.0926   -0.2909 C   0  0  1  0  0  0  0  0  0  0  0  0
    2.2656   -1.3871   -0.1848 N   0  0  0  0  0  0  0  0  0  0  0  0
    0.9908    0.6941    0.2761 C   0  0  0  0  0  0  0  0  0  0  0  0
   -0.2633    0.2437   -0.4814 C   0  0  0  0  0  0  0  0  0  0  0  0
   -1.5214    0.9142    0.0799 C   0  0  0  0  0  0  0  0  0  0  0  0
   -2.7861    0.5083   -0.6770 C   0  0  0  0  0  0  0  0  0  0  0  0
   -3.0990   -0.8968   -0.5237 N   0  0  0  0  0  0  0  0  0  0  0  0
   -3.7713   -1.3767    0.5699 C   0  0  0  0  0  0  0  0  0  0  0  0
   -4.2151   -0.7060    1.4898 O   0  0  0  0  0  0  0  0  0  0  0  0
    5.2039    0.3022    1.0626 H   0  0  0  0  0  0  0  0  0  0  0  0
    2.3900    0.3546   -1.3498 H   0  0  0  0  0  0  0  0  0  0  0  0
    3.2117   -1.7118   -0.4083 H   0  0  0  0  0  0  0  0  0  0  0  0
    2.1453   -1.6373    0.7978 H   0  0  0  0  0  0  0  0  0  0  0  0
    1.0549    1.7892    0.2344 H   0  0  0  0  0  0  0  0  0  0  0  0
    0.8929    0.4361    1.3391 H   0  0  0  0  0  0  0  0  0  0  0  0
   -0.3676   -0.8449   -0.4127 H   0  0  0  0  0  0  0  0  0  0  0  0
   -0.1583    0.4941   -1.5440 H   0  0  0  0  0  0  0  0  0  0  0  0
   -1.6256    0.6666    1.1432 H   0  0  0  0  0  0  0  0  0  0  0  0
   -1.4096    2.0031    0.0122 H   0  0  0  0  0  0  0  0  0  0  0  0
   -3.6344    1.0965   -0.3094 H   0  0  0  0  0  0  0  0  0  0  0  0
   -2.6772    0.7050   -1.7487 H   0  0  0  0  0  0  0  0  0  0  0  0
   -2.6983   -1.5604   -1.1742 H   0  0  0  0  0  0  0  0  0  0  0  0
   -3.8755   -2.4741    0.5359 H   0  0  0  0  0  0  0  0  0  0  0  0
  1  2  2  0
  2  3  1  0
  2  4  1  0
  4  5  1  0
  4  6  1  0
  6  7  1  0
  7  8  1  0
  8  9  1  0
  9 10  1  0
 10 11  1  0
 11 12  2  0
  3 13  1  0
  4 14  1  6
  5 15  1  0
  5 16  1  0
  6 17  1  0
  6 18  1  0
  7 19  1  0
  7 20  1  0
  8 21  1  0
  8 22  1  0
  9 23  1  0
  9 24  1  0
 10 25  1  0
 11 26  1  0
M  END
>  <Name>  (143) 
UB23_ForK

>  <canvasUID>  (143) 
152

>  <MW>  (143) 
174.1977

>  <AlogP>  (143) 
-0.6494

>  <HBA>  (143) 
1

>  <HBD>  (143) 
1

>  <RB>  (143) 
6

>  <PSA>  (143) 
92.42

>  <Estate>  (143) 
38.5

>  <Polar>  (143) 
17.13

>  <Chirality>  (143) 
[(3, 'S')]

$$$$

     RDKit          3D

 28 28  0  0  0  0  0  0  0  0999 V2000
   -4.3051    1.3636   -1.0555 O   0  0  0  0  0  0  0  0  0  0  0  0
   -3.9154    1.2838    0.0980 C   0  0  0  0  0  0  0  0  0  0  0  0
   -4.7438    1.6319    1.1103 O   0  0  0  0  0  0  0  0  0  0  0  0
   -2.5163    0.8578    0.5667 C   0  0  1  0  0  0  0  0  0  0  0  0
   -2.5115    0.5804    2.0311 N   0  0  0  0  0  0  0  0  0  0  0  0
   -2.0515   -0.3666   -0.2395 C   0  0  0  0  0  0  0  0  0  0  0  0
   -0.5505   -0.5478   -0.2330 C   0  0  0  0  0  0  0  0  0  0  0  0
    0.0761   -1.3022    0.7663 C   0  0  0  0  0  0  0  0  0  0  0  0
    1.4639   -1.4599    0.7660 C   0  0  0  0  0  0  0  0  0  0  0  0
    2.2458   -0.8551   -0.2223 C   0  0  0  0  0  0  0  0  0  0  0  0
    1.6282   -0.1030   -1.2202 C   0  0  0  0  0  0  0  0  0  0  0  0
    0.2377    0.0514   -1.2222 C   0  0  0  0  0  0  0  0  0  0  0  0
    3.5935   -1.0856   -0.1207 O   0  0  0  0  0  0  0  0  0  0  0  0
    4.6929   -0.2118   -0.9423 S   0  0  0  0  0  6  0  0  0  0  0  0
    4.6564   -0.5712   -2.3437 O   0  0  0  0  0  0  0  0  0  0  0  0
    4.6243    1.1674   -0.5033 O   0  0  0  0  0  0  0  0  0  0  0  0
    6.0879   -0.7557   -0.3421 O   0  0  0  0  0  0  0  0  0  0  0  0
   -5.5692    1.9012    0.6536 H   0  0  0  0  0  0  0  0  0  0  0  0
   -1.8575    1.7178    0.3887 H   0  0  0  0  0  0  0  0  0  0  0  0
   -3.1791   -0.1691    2.2211 H   0  0  0  0  0  0  0  0  0  0  0  0
   -2.9251    1.3975    2.4902 H   0  0  0  0  0  0  0  0  0  0  0  0
   -2.3786   -0.2926   -1.2838 H   0  0  0  0  0  0  0  0  0  0  0  0
   -2.5341   -1.2811    0.1337 H   0  0  0  0  0  0  0  0  0  0  0  0
   -0.5122   -1.7665    1.5551 H   0  0  0  0  0  0  0  0  0  0  0  0
    1.9329   -2.0533    1.5467 H   0  0  0  0  0  0  0  0  0  0  0  0
    2.1895    0.3701   -2.0204 H   0  0  0  0  0  0  0  0  0  0  0  0
   -0.2262    0.6418   -2.0096 H   0  0  0  0  0  0  0  0  0  0  0  0
    6.3470   -0.1433    0.3785 H   0  0  0  0  0  0  0  0  0  0  0  0
  1  2  2  0
  2  3  1  0
  2  4  1  0
  4  5  1  0
  4  6  1  0
  6  7  1  0
  7  8  2  0
  8  9  1  0
  9 10  2  0
 10 11  1  0
 11 12  2  0
 10 13  1  0
 13 14  1  0
 14 15  2  0
 14 16  2  0
 14 17  1  0
 12  7  1  0
  3 18  1  0
  4 19  1  1
  5 20  1  0
  5 21  1  0
  6 22  1  0
  6 23  1  0
  8 24  1  0
  9 25  1  0
 11 26  1  0
 12 27  1  0
 17 28  1  0
M  END
>  <Name>  (144) 
UB24_sTyr

>  <canvasUID>  (144) 
153

>  <MW>  (144) 
261.2517

>  <AlogP>  (144) 
0.1884

>  <HBA>  (144) 
2

>  <HBD>  (144) 
0

>  <RB>  (144) 
5

>  <PSA>  (144) 
135.3

>  <Estate>  (144) 
58.251

>  <Polar>  (144) 
26.389

>  <Chirality>  (144) 
[(3, 'S')]

$$$$

     RDKit          3D

 25 25  0  0  0  0  0  0  0  0999 V2000
   -3.8412   -0.9741    0.9939 O   0  0  0  0  0  0  0  0  0  0  0  0
   -3.4098   -0.1506    0.2033 C   0  0  0  0  0  0  0  0  0  0  0  0
   -4.2573    0.7166   -0.3966 O   0  0  0  0  0  0  0  0  0  0  0  0
   -1.9519    0.0058   -0.2532 C   0  0  1  0  0  0  0  0  0  0  0  0
   -1.7314    1.3451   -0.8634 N   0  0  0  0  0  0  0  0  0  0  0  0
   -1.0070   -0.2314    0.9381 C   0  0  0  0  0  0  0  0  0  0  0  0
    0.4331   -0.4505    0.5257 C   0  0  0  0  0  0  0  0  0  0  0  0
    1.2904    0.6408    0.3229 C   0  0  0  0  0  0  0  0  0  0  0  0
    2.6123    0.4149   -0.0815 C   0  0  0  0  0  0  0  0  0  0  0  0
    3.4912    1.5448   -0.2966 N   0  0  0  0  0  4  0  0  0  0  0  0
    3.4266    2.4719    0.5243 O   0  0  0  0  0  1  0  0  0  0  0  0
    4.2252    1.5275   -1.2933 O   0  0  0  0  0  0  0  0  0  0  0  0
    3.0933   -0.8738   -0.2728 C   0  0  0  0  0  0  0  0  0  0  0  0
    4.3659   -1.1089   -0.6200 F   0  0  0  0  0  0  0  0  0  0  0  0
    2.2472   -1.9607   -0.0747 C   0  0  0  0  0  0  0  0  0  0  0  0
    0.9215   -1.7513    0.3181 C   0  0  0  0  0  0  0  0  0  0  0  0
   -5.1373    0.4796   -0.0334 H   0  0  0  0  0  0  0  0  0  0  0  0
   -1.7861   -0.7482   -1.0318 H   0  0  0  0  0  0  0  0  0  0  0  0
   -1.9601    2.0590   -0.1696 H   0  0  0  0  0  0  0  0  0  0  0  0
   -2.4509    1.4671   -1.5827 H   0  0  0  0  0  0  0  0  0  0  0  0
   -1.3342   -1.1060    1.5161 H   0  0  0  0  0  0  0  0  0  0  0  0
   -1.0609    0.6073    1.6460 H   0  0  0  0  0  0  0  0  0  0  0  0
    0.9237    1.6563    0.4637 H   0  0  0  0  0  0  0  0  0  0  0  0
    2.6255   -2.9680   -0.2247 H   0  0  0  0  0  0  0  0  0  0  0  0
    0.2721   -2.6131    0.4658 H   0  0  0  0  0  0  0  0  0  0  0  0
  1  2  2  0
  2  3  1  0
  2  4  1  0
  4  5  1  0
  4  6  1  0
  6  7  1  0
  7  8  2  0
  8  9  1  0
  9 10  1  0
 10 11  1  0
 10 12  2  0
  9 13  2  0
 13 14  1  0
 13 15  1  0
 15 16  2  0
 16  7  1  0
  3 17  1  0
  4 18  1  6
  5 19  1  0
  5 20  1  0
  6 21  1  0
  6 22  1  0
  8 23  1  0
 15 24  1  0
 16 25  1  0
M  CHG  2  10   1  11  -1
M  END
>  <Name>  (145) 
UB25_FNO2F

>  <canvasUID>  (145) 
154

>  <MW>  (145) 
228.1772

>  <AlogP>  (145) 
0.9485

>  <HBA>  (145) 
0

>  <HBD>  (145) 
0

>  <RB>  (145) 
4

>  <PSA>  (145) 
106.46

>  <Estate>  (145) 
57.501

>  <Polar>  (145) 
22.732

>  <Chirality>  (145) 
[(3, 'S')]

$$$$

     RDKit          3D

 43 45  0  0  0  0  0  0  0  0999 V2000
    6.1195   -1.9353   -0.4491 O   0  0  0  0  0  0  0  0  0  0  0  0
    5.6597   -1.4046    0.5525 C   0  0  0  0  0  0  0  0  0  0  0  0
    4.9475   -2.1226    1.4435 O   0  0  0  0  0  0  0  0  0  0  0  0
    5.8109    0.0673    0.9406 C   0  0  1  0  0  0  0  0  0  0  0  0
    7.2563    0.3881    1.0333 N   0  0  0  0  0  0  0  0  0  0  0  0
    5.1150    0.9528   -0.1065 C   0  0  0  0  0  0  0  0  0  0  0  0
    3.6131    0.7887   -0.1234 C   0  0  0  0  0  0  0  0  0  0  0  0
    2.8204    1.3888    0.8608 C   0  0  0  0  0  0  0  0  0  0  0  0
    1.4318    1.2227    0.8511 C   0  0  0  0  0  0  0  0  0  0  0  0
    0.7993    0.4527   -0.1374 C   0  0  0  0  0  0  0  0  0  0  0  0
    1.6049   -0.1465   -1.1182 C   0  0  0  0  0  0  0  0  0  0  0  0
    2.9936    0.0178   -1.1131 C   0  0  0  0  0  0  0  0  0  0  0  0
   -0.6624    0.2784   -0.1446 C   0  0  0  0  0  0  0  0  0  0  0  0
   -1.2396   -0.9994   -0.1771 C   0  0  0  0  0  0  0  0  0  0  0  0
   -2.6303   -1.1652   -0.1840 C   0  0  0  0  0  0  0  0  0  0  0  0
   -3.4921   -0.0591   -0.1586 C   0  0  0  0  0  0  0  0  0  0  0  0
   -2.9149    1.2187   -0.1260 C   0  0  0  0  0  0  0  0  0  0  0  0
   -1.5242    1.3845   -0.1192 C   0  0  0  0  0  0  0  0  0  0  0  0
   -4.9538   -0.2334   -0.1658 C   0  0  0  0  0  0  0  0  0  0  0  0
   -5.5864   -1.0031   -1.1565 C   0  0  0  0  0  0  0  0  0  0  0  0
   -6.9742   -1.1687   -1.1645 C   0  0  0  0  0  0  0  0  0  0  0  0
   -7.7537   -0.5674   -0.1797 C   0  0  0  0  0  0  0  0  0  0  0  0
   -7.1472    0.1992    0.8119 C   0  0  0  0  0  0  0  0  0  0  0  0
   -5.7594    0.3647    0.8177 C   0  0  0  0  0  0  0  0  0  0  0  0
    4.9527   -3.0302    1.0765 H   0  0  0  0  0  0  0  0  0  0  0  0
    5.3712    0.2221    1.9324 H   0  0  0  0  0  0  0  0  0  0  0  0
    7.7028    0.1283    0.1507 H   0  0  0  0  0  0  0  0  0  0  0  0
    7.3774    1.3944    1.1316 H   0  0  0  0  0  0  0  0  0  0  0  0
    5.5156    0.7493   -1.1089 H   0  0  0  0  0  0  0  0  0  0  0  0
    5.3360    2.0107    0.0906 H   0  0  0  0  0  0  0  0  0  0  0  0
    3.2743    1.9888    1.6466 H   0  0  0  0  0  0  0  0  0  0  0  0
    0.8421    1.6920    1.6363 H   0  0  0  0  0  0  0  0  0  0  0  0
    1.1506   -0.7421   -1.9078 H   0  0  0  0  0  0  0  0  0  0  0  0
    3.5844   -0.4633   -1.8906 H   0  0  0  0  0  0  0  0  0  0  0  0
   -0.6069   -1.8847   -0.1823 H   0  0  0  0  0  0  0  0  0  0  0  0
   -3.0374   -2.1744   -0.1943 H   0  0  0  0  0  0  0  0  0  0  0  0
   -3.5480    2.1038   -0.1209 H   0  0  0  0  0  0  0  0  0  0  0  0
   -1.1176    2.3939   -0.1091 H   0  0  0  0  0  0  0  0  0  0  0  0
   -4.9973   -1.4722   -1.9420 H   0  0  0  0  0  0  0  0  0  0  0  0
   -7.4442   -1.7652   -1.9419 H   0  0  0  0  0  0  0  0  0  0  0  0
   -8.8328   -0.6962   -0.1850 H   0  0  0  0  0  0  0  0  0  0  0  0
   -7.7519    0.6674    1.5841 H   0  0  0  0  0  0  0  0  0  0  0  0
   -5.3048    0.9582    1.6084 H   0  0  0  0  0  0  0  0  0  0  0  0
  1  2  2  0
  2  3  1  0
  2  4  1  0
  4  5  1  0
  4  6  1  0
  6  7  1  0
  7  8  2  0
  8  9  1  0
  9 10  2  0
 10 11  1  0
 11 12  2  0
 10 13  1  0
 13 14  2  0
 14 15  1  0
 15 16  2  0
 16 17  1  0
 17 18  2  0
 16 19  1  0
 19 20  2  0
 20 21  1  0
 21 22  2  0
 22 23  1  0
 23 24  2  0
 12  7  1  0
 18 13  1  0
 24 19  1  0
  3 25  1  0
  4 26  1  1
  5 27  1  0
  5 28  1  0
  6 29  1  0
  6 30  1  0
  8 31  1  0
  9 32  1  0
 11 33  1  0
 12 34  1  0
 14 35  1  0
 15 36  1  0
 17 37  1  0
 18 38  1  0
 20 39  1  0
 21 40  1  0
 22 41  1  0
 23 42  1  0
 24 43  1  0
M  END
>  <Name>  (146) 
UB26_BFF

>  <canvasUID>  (146) 
155

>  <MW>  (146) 
317.3811

>  <AlogP>  (146) 
3.8854

>  <HBA>  (146) 
0

>  <HBD>  (146) 
0

>  <RB>  (146) 
5

>  <PSA>  (146) 
63.32

>  <Estate>  (146) 
56.835

>  <Polar>  (146) 
47.125

>  <Chirality>  (146) 
[(3, 'S')]

$$$$

     RDKit          3D

 25 24  0  0  0  0  0  0  0  0999 V2000
    2.4563   -2.7594    0.3229 O   0  0  0  0  0  0  0  0  0  0  0  0
    2.7330   -1.6030    0.0443 C   0  0  0  0  0  0  0  0  0  0  0  0
    3.5735   -1.3303   -0.9808 O   0  0  0  0  0  0  0  0  0  0  0  0
    2.1448   -0.3491    0.7030 C   0  0  1  0  0  0  0  0  0  0  0  0
    3.1246    0.7569    0.6684 N   0  0  0  0  0  0  0  0  0  0  0  0
    0.8258    0.0018    0.0011 C   0  0  0  0  0  0  0  0  0  0  0  0
   -0.0052    1.0435    0.7612 C   0  0  0  0  0  0  0  0  0  0  0  0
   -1.3382    1.3294    0.0738 C   0  0  0  0  0  0  0  0  0  0  0  0
   -2.2241    0.1838    0.1084 N   0  0  0  0  0  0  0  0  0  0  0  0
   -3.3231    0.1575   -0.7013 C   0  0  0  0  0  0  0  0  0  0  0  0
   -3.6065    0.9800   -1.5571 O   0  0  0  0  0  0  0  0  0  0  0  0
   -4.1051   -0.9242   -0.4554 N   0  0  0  0  0  0  0  0  0  0  0  0
    3.8611   -2.2159   -1.2857 H   0  0  0  0  0  0  0  0  0  0  0  0
    1.9641   -0.5967    1.7551 H   0  0  0  0  0  0  0  0  0  0  0  0
    2.6668    1.6497    0.8287 H   0  0  0  0  0  0  0  0  0  0  0  0
    3.5180    0.7952   -0.2760 H   0  0  0  0  0  0  0  0  0  0  0  0
    1.0272    0.3620   -1.0166 H   0  0  0  0  0  0  0  0  0  0  0  0
    0.2339   -0.9152   -0.1165 H   0  0  0  0  0  0  0  0  0  0  0  0
    0.5501    1.9850    0.8323 H   0  0  0  0  0  0  0  0  0  0  0  0
   -0.1846    0.6939    1.7852 H   0  0  0  0  0  0  0  0  0  0  0  0
   -1.8529    2.1512    0.5845 H   0  0  0  0  0  0  0  0  0  0  0  0
   -1.1797    1.6350   -0.9669 H   0  0  0  0  0  0  0  0  0  0  0  0
   -2.3989   -0.2265    1.0152 H   0  0  0  0  0  0  0  0  0  0  0  0
   -4.8520   -1.0199   -1.1332 H   0  0  0  0  0  0  0  0  0  0  0  0
   -3.6089   -1.7844   -0.2711 H   0  0  0  0  0  0  0  0  0  0  0  0
  1  2  2  0
  2  3  1  0
  2  4  1  0
  4  5  1  0
  4  6  1  0
  6  7  1  0
  7  8  1  0
  8  9  1  0
  9 10  1  0
 10 11  2  0
 10 12  1  0
  3 13  1  0
  4 14  1  1
  5 15  1  0
  5 16  1  0
  6 17  1  0
  6 18  1  0
  7 19  1  0
  7 20  1  0
  8 21  1  0
  8 22  1  0
  9 23  1  0
 12 24  1  0
 12 25  1  0
M  END
>  <Name>  (147) 
UB27_CitR

>  <canvasUID>  (147) 
156

>  <MW>  (147) 
175.1857

>  <AlogP>  (147) 
-1.2682

>  <HBA>  (147) 
1

>  <HBD>  (147) 
2

>  <RB>  (147) 
5

>  <PSA>  (147) 
118.44

>  <Estate>  (147) 
40.667

>  <Polar>  (147) 
16.646

>  <Chirality>  (147) 
[(3, 'S')]

$$$$

     RDKit          3D

 36 36  0  0  0  0  0  0  0  0999 V2000
    6.8776    0.6078    0.0140 O   0  0  0  0  0  0  0  0  0  0  0  0
    5.7066    0.9519    0.1023 C   0  0  0  0  0  0  0  0  0  0  0  0
    5.3656    1.9484    0.9420 O   0  0  0  0  0  0  0  0  0  0  0  0
    4.5406    0.4215   -0.7501 C   0  0  1  0  0  0  0  0  0  0  0  0
    4.9158   -0.8876   -1.3279 N   0  0  0  0  0  0  0  0  0  0  0  0
    3.2421    0.2960    0.0606 C   0  0  0  0  0  0  0  0  0  0  0  0
    2.0449   -0.1811   -0.7701 C   0  0  0  0  0  0  0  0  0  0  0  0
    0.7570   -0.1637    0.0552 C   0  0  0  0  0  0  0  0  0  0  0  0
   -0.4310   -0.6713   -0.7579 C   0  0  0  0  0  0  0  0  0  0  0  0
   -1.6522   -0.6359    0.0108 N   0  0  0  0  0  0  0  0  0  0  0  0
   -2.4369    0.4908    0.1212 C   0  0  0  0  0  0  0  0  0  0  0  0
   -2.1348    1.5825   -0.3519 O   0  0  0  0  0  0  0  0  0  0  0  0
   -3.6956    0.2639    0.9640 C   0  0  0  0  0  0  0  0  0  0  0  0
   -4.8860    1.0627    0.4577 C   0  0  0  0  0  0  0  0  0  0  0  0
   -6.0602    0.1969    0.8414 C   0  0  0  0  0  0  0  0  0  0  0  0
   -5.4016   -1.1407    0.8392 C   0  0  0  0  0  0  0  0  0  0  0  0
   -4.1074   -1.1764    0.8938 N   0  0  0  0  0  0  0  0  0  0  0  0
    6.2104    2.1808    1.3814 H   0  0  0  0  0  0  0  0  0  0  0  0
    4.4078    1.1387   -1.5689 H   0  0  0  0  0  0  0  0  0  0  0  0
    4.3704   -1.0530   -2.1714 H   0  0  0  0  0  0  0  0  0  0  0  0
    5.8949   -0.8384   -1.6224 H   0  0  0  0  0  0  0  0  0  0  0  0
    2.9933    1.2716    0.4971 H   0  0  0  0  0  0  0  0  0  0  0  0
    3.3962   -0.3857    0.9076 H   0  0  0  0  0  0  0  0  0  0  0  0
    1.9254    0.4667   -1.6471 H   0  0  0  0  0  0  0  0  0  0  0  0
    2.2219   -1.1987   -1.1372 H   0  0  0  0  0  0  0  0  0  0  0  0
    0.5594    0.8561    0.4077 H   0  0  0  0  0  0  0  0  0  0  0  0
    0.8794   -0.7861    0.9504 H   0  0  0  0  0  0  0  0  0  0  0  0
   -0.2704   -1.7104   -1.0627 H   0  0  0  0  0  0  0  0  0  0  0  0
   -0.5647   -0.0665   -1.6614 H   0  0  0  0  0  0  0  0  0  0  0  0
   -2.0914   -1.4984    0.3274 H   0  0  0  0  0  0  0  0  0  0  0  0
   -3.4577    0.5100    2.0059 H   0  0  0  0  0  0  0  0  0  0  0  0
   -4.9389    2.0629    0.8986 H   0  0  0  0  0  0  0  0  0  0  0  0
   -4.8489    1.1844   -0.6322 H   0  0  0  0  0  0  0  0  0  0  0  0
   -6.8751    0.2367    0.1157 H   0  0  0  0  0  0  0  0  0  0  0  0
   -6.4417    0.4088    1.8436 H   0  0  0  0  0  0  0  0  0  0  0  0
   -6.0149   -2.0538    0.8233 H   0  0  0  0  0  0  0  0  0  0  0  0
  1  2  2  0
  2  3  1  0
  2  4  1  0
  4  5  1  0
  4  6  1  0
  6  7  1  0
  7  8  1  0
  8  9  1  0
  9 10  1  0
 10 11  1  0
 11 12  2  0
 11 13  1  0
 13 14  1  0
 14 15  1  0
 15 16  1  0
 16 17  2  0
 17 13  1  0
  3 18  1  0
  4 19  1  6
  5 20  1  0
  5 21  1  0
  6 22  1  0
  6 23  1  0
  7 24  1  0
  7 25  1  0
  8 26  1  0
  8 27  1  0
  9 28  1  0
  9 29  1  0
 10 30  1  0
 13 31  1  0
 14 32  1  0
 14 33  1  0
 15 34  1  0
 15 35  1  0
 16 36  1  0
M  END
>  <Name>  (148) 
UB28_dmPyl

>  <canvasUID>  (148) 
158

>  <MW>  (148) 
241.2869

>  <AlogP>  (148) 
-0.6103

>  <HBA>  (148) 
2

>  <HBD>  (148) 
1

>  <RB>  (148) 
7

>  <PSA>  (148) 
104.78

>  <Estate>  (148) 
47.5

>  <Polar>  (148) 
24.63

>  <Chirality>  (148) 
[(3, 'S')]

$$$$

     RDKit          3D

 38 38  0  0  0  0  0  0  0  0999 V2000
    3.8398    3.8304   -1.5573 C   0  0  0  0  0  0  0  0  0  0  0  0
    4.1425    2.6840   -1.3668 C   0  0  0  0  0  0  0  0  0  0  0  0
    4.5232    1.2897   -1.1337 C   0  0  0  0  0  0  0  0  0  0  0  0
    3.6353    0.4637   -0.2060 C   0  0  0  0  0  0  0  0  0  0  0  0
    3.9939   -0.9669   -0.5222 N   0  0  0  0  0  0  0  0  0  0  0  0
    4.4524   -0.9081   -1.7368 C   0  0  0  0  0  0  0  0  0  0  0  0
    4.5467    0.4367   -2.3829 C   0  0  0  0  0  0  0  0  0  0  0  0
    2.1044    0.5820   -0.3769 C   0  0  0  0  0  0  0  0  0  0  0  0
    1.5299    1.4533   -1.0182 O   0  0  0  0  0  0  0  0  0  0  0  0
    1.4336   -0.4168    0.3107 N   0  0  0  0  0  0  0  0  0  0  0  0
   -0.0006   -0.5786    0.2184 C   0  0  0  0  0  0  0  0  0  0  0  0
   -0.7374    0.3765    1.1562 C   0  0  0  0  0  0  0  0  0  0  0  0
   -2.2606    0.3238    1.0037 C   0  0  0  0  0  0  0  0  0  0  0  0
   -2.8613   -1.0362    1.3779 C   0  0  0  0  0  0  0  0  0  0  0  0
   -4.3940   -1.0153    1.4465 C   0  0  2  0  0  0  0  0  0  0  0  0
   -4.8573   -2.3064    2.0127 N   0  0  0  0  0  0  0  0  0  0  0  0
   -5.0127   -0.8255    0.0564 C   0  0  0  0  0  0  0  0  0  0  0  0
   -5.3550   -1.7147   -0.7090 O   0  0  0  0  0  0  0  0  0  0  0  0
   -5.1700    0.4681   -0.2830 O   0  0  0  0  0  0  0  0  0  0  0  0
    3.5507    4.8423   -1.7248 H   0  0  0  0  0  0  0  0  0  0  0  0
    5.5379    1.2886   -0.7075 H   0  0  0  0  0  0  0  0  0  0  0  0
    3.8745    0.6771    0.8428 H   0  0  0  0  0  0  0  0  0  0  0  0
    4.7479   -1.8078   -2.2969 H   0  0  0  0  0  0  0  0  0  0  0  0
    5.4785    0.5326   -2.9460 H   0  0  0  0  0  0  0  0  0  0  0  0
    3.6941    0.5832   -3.0527 H   0  0  0  0  0  0  0  0  0  0  0  0
    2.0079   -1.2239    0.5430 H   0  0  0  0  0  0  0  0  0  0  0  0
   -0.2156   -1.6193    0.4797 H   0  0  0  0  0  0  0  0  0  0  0  0
   -0.3073   -0.4153   -0.8207 H   0  0  0  0  0  0  0  0  0  0  0  0
   -0.4602    0.1586    2.1952 H   0  0  0  0  0  0  0  0  0  0  0  0
   -0.4107    1.4061    0.9641 H   0  0  0  0  0  0  0  0  0  0  0  0
   -2.6951    1.0992    1.6464 H   0  0  0  0  0  0  0  0  0  0  0  0
   -2.5234    0.5805   -0.0289 H   0  0  0  0  0  0  0  0  0  0  0  0
   -2.5352   -1.7906    0.6509 H   0  0  0  0  0  0  0  0  0  0  0  0
   -2.4609   -1.3368    2.3551 H   0  0  0  0  0  0  0  0  0  0  0  0
   -4.7501   -0.2179    2.1077 H   0  0  0  0  0  0  0  0  0  0  0  0
   -5.8776   -2.2922    2.0558 H   0  0  0  0  0  0  0  0  0  0  0  0
   -4.6433   -3.0417    1.3333 H   0  0  0  0  0  0  0  0  0  0  0  0
   -5.5648    0.4379   -1.1798 H   0  0  0  0  0  0  0  0  0  0  0  0
  1  2  3  0
  2  3  1  0
  3  4  1  0
  4  5  1  0
  5  6  2  0
  6  7  1  0
  4  8  1  0
  8  9  2  0
  8 10  1  0
 10 11  1  0
 11 12  1  0
 12 13  1  0
 13 14  1  0
 14 15  1  0
 15 16  1  0
 15 17  1  0
 17 18  2  0
 17 19  1  0
  7  3  1  0
  1 20  1  0
  3 21  1  0
  4 22  1  0
  6 23  1  0
  7 24  1  0
  7 25  1  0
 10 26  1  0
 11 27  1  0
 11 28  1  0
 12 29  1  0
 12 30  1  0
 13 31  1  0
 13 32  1  0
 14 33  1  0
 14 34  1  0
 15 35  1  1
 16 36  1  0
 16 37  1  0
 19 38  1  0
M  END
>  <Name>  (149) 
UB29_ePyl

>  <canvasUID>  (149) 
159

>  <MW>  (149) 
265.3083

>  <AlogP>  (149) 
0.3499

>  <HBA>  (149) 
2

>  <HBD>  (149) 
2

>  <RB>  (149) 
7

>  <PSA>  (149) 
104.78

>  <Estate>  (149) 
53.833

>  <Polar>  (149) 
27.196

>  <Chirality>  (149) 
[(14, 'S')]

$$$$

     RDKit          3D

 48 49  0  0  0  0  0  0  0  0999 V2000
   -6.8191    1.8263   -0.2154 O   0  0  0  0  0  0  0  0  0  0  0  0
   -7.2246    0.7137   -0.5069 C   0  0  0  0  0  0  0  0  0  0  0  0
   -8.5583    0.4802   -0.5865 O   0  0  0  0  0  0  0  0  0  0  0  0
   -6.3985   -0.5568   -0.7711 C   0  0  1  0  0  0  0  0  0  0  0  0
   -6.9123   -1.2191   -1.9921 N   0  0  0  0  0  0  0  0  0  0  0  0
   -4.9059   -0.2554   -0.9651 C   0  0  0  0  0  0  0  0  0  0  0  0
   -4.1958    0.0532    0.3597 C   0  0  0  0  0  0  0  0  0  0  0  0
   -2.7389    0.4895    0.1804 C   0  0  0  0  0  0  0  0  0  0  0  0
   -1.8452   -0.5997   -0.4092 C   0  0  0  0  0  0  0  0  0  0  0  0
   -0.4612   -0.1883   -0.4394 N   0  0  0  0  0  0  0  0  0  0  0  0
    0.3721   -0.3206    0.6274 C   0  0  0  0  0  0  0  0  0  0  0  0
    0.0719   -0.8003    1.7089 O   0  0  0  0  0  0  0  0  0  0  0  0
    1.5917    0.1695    0.2971 O   0  0  0  0  0  0  0  0  0  0  0  0
    2.6130    0.0388    1.3041 C   0  0  0  0  0  0  0  0  0  0  0  0
    2.4408    1.1720    2.3214 C   0  0  0  0  0  0  0  0  0  0  0  0
    3.9444    0.0232    0.5571 C   0  0  0  0  0  0  0  0  0  0  0  0
    4.9431    0.9888    0.7948 C   0  0  0  0  0  0  0  0  0  0  0  0
    4.2241   -0.9667   -0.4313 C   0  0  0  0  0  0  0  0  0  0  0  0
    3.2566   -2.0110   -0.7299 N   0  0  0  0  0  4  0  0  0  0  0  0
    3.0002   -2.8152    0.1746 O   0  0  0  0  0  1  0  0  0  0  0  0
    2.7866   -2.0321   -1.8753 O   0  0  0  0  0  0  0  0  0  0  0  0
    5.4214   -1.0049   -1.1643 C   0  0  0  0  0  0  0  0  0  0  0  0
    6.3501   -0.0333   -0.8829 C   0  0  0  0  0  0  0  0  0  0  0  0
    6.1191    0.9320    0.0677 C   0  0  0  0  0  0  0  0  0  0  0  0
    7.5662    0.1000   -1.4744 O   0  0  0  0  0  0  0  0  0  0  0  0
    8.0766    1.2654   -0.7927 C   0  0  0  0  0  0  0  0  0  0  0  0
    7.1626    1.7958    0.1905 O   0  0  0  0  0  0  0  0  0  0  0  0
   -8.9522    1.3609   -0.4136 H   0  0  0  0  0  0  0  0  0  0  0  0
   -6.5445   -1.2269    0.0840 H   0  0  0  0  0  0  0  0  0  0  0  0
   -6.5446   -2.1680   -2.0391 H   0  0  0  0  0  0  0  0  0  0  0  0
   -7.9268   -1.3081   -1.8902 H   0  0  0  0  0  0  0  0  0  0  0  0
   -4.7762    0.5856   -1.6579 H   0  0  0  0  0  0  0  0  0  0  0  0
   -4.4189   -1.1259   -1.4217 H   0  0  0  0  0  0  0  0  0  0  0  0
   -4.7227    0.8526    0.8924 H   0  0  0  0  0  0  0  0  0  0  0  0
   -4.2343   -0.8311    1.0082 H   0  0  0  0  0  0  0  0  0  0  0  0
   -2.6944    1.3853   -0.4515 H   0  0  0  0  0  0  0  0  0  0  0  0
   -2.3486    0.7885    1.1614 H   0  0  0  0  0  0  0  0  0  0  0  0
   -1.9267   -1.5205    0.1790 H   0  0  0  0  0  0  0  0  0  0  0  0
   -2.1290   -0.8241   -1.4418 H   0  0  0  0  0  0  0  0  0  0  0  0
   -0.0721    0.2391   -1.2684 H   0  0  0  0  0  0  0  0  0  0  0  0
    2.5208   -0.9153    1.8384 H   0  0  0  0  0  0  0  0  0  0  0  0
    2.4738    2.1530    1.8333 H   0  0  0  0  0  0  0  0  0  0  0  0
    3.2099    1.1349    3.0998 H   0  0  0  0  0  0  0  0  0  0  0  0
    1.4661    1.1110    2.8162 H   0  0  0  0  0  0  0  0  0  0  0  0
    4.8266    1.7842    1.5235 H   0  0  0  0  0  0  0  0  0  0  0  0
    5.6153   -1.7614   -1.9178 H   0  0  0  0  0  0  0  0  0  0  0  0
    8.2837    2.0442   -1.5360 H   0  0  0  0  0  0  0  0  0  0  0  0
    9.0139    0.9973   -0.2919 H   0  0  0  0  0  0  0  0  0  0  0  0
  1  2  2  0
  2  3  1  0
  2  4  1  0
  4  5  1  0
  4  6  1  0
  6  7  1  0
  7  8  1  0
  8  9  1  0
  9 10  1  0
 10 11  1  0
 11 12  2  0
 11 13  1  0
 13 14  1  0
 14 15  1  0
 14 16  1  0
 16 17  2  0
 16 18  1  0
 18 19  1  0
 19 20  1  0
 19 21  2  0
 18 22  2  0
 22 23  1  0
 23 24  2  0
 23 25  1  0
 25 26  1  0
 26 27  1  0
 24 17  1  0
 27 24  1  0
  3 28  1  0
  4 29  1  1
  5 30  1  0
  5 31  1  0
  6 32  1  0
  6 33  1  0
  7 34  1  0
  7 35  1  0
  8 36  1  0
  8 37  1  0
  9 38  1  0
  9 39  1  0
 10 40  1  0
 14 41  1  0
 15 42  1  0
 15 43  1  0
 15 44  1  0
 17 45  1  0
 22 46  1  0
 26 47  1  0
 26 48  1  0
M  CHG  2  19   1  20  -1
M  END
>  <Name>  (150) 
UB30_PCK

>  <canvasUID>  (150) 
160

>  <MW>  (150) 
383.3532

>  <AlogP>  (150) 
1.6961

>  <HBA>  (150) 
4

>  <HBD>  (150) 
1

>  <RB>  (150) 
10

>  <PSA>  (150) 
163.25

>  <Estate>  (150) 
80.168

>  <Polar>  (150) 
38.242

>  <Chirality>  (150) 
[(3, 'S')]

$$$$

     RDKit          3D

 46 47  0  0  0  0  0  0  0  0999 V2000
   -5.6962    3.0727   -1.5788 O   0  0  0  0  0  0  0  0  0  0  0  0
   -6.2772    2.0030   -1.5022 C   0  0  0  0  0  0  0  0  0  0  0  0
   -7.6294    1.9593   -1.5885 O   0  0  0  0  0  0  0  0  0  0  0  0
   -5.6659    0.6116   -1.2712 C   0  0  1  0  0  0  0  0  0  0  0  0
   -6.2673   -0.3430   -2.2341 N   0  0  0  0  0  0  0  0  0  0  0  0
   -4.1430    0.6028   -1.4656 C   0  0  0  0  0  0  0  0  0  0  0  0
   -3.3473    1.3513   -0.3907 C   0  0  0  0  0  0  0  0  0  0  0  0
   -3.5242    0.6656    1.2949 S   0  0  0  0  0  0  0  0  0  0  0  0
   -2.5147   -0.8251    1.1407 C   0  0  0  0  0  0  0  0  0  0  0  0
   -1.1371   -0.4527    1.0709 N   0  0  0  0  0  0  0  0  0  0  0  0
   -0.1801   -1.3598    0.7456 C   0  0  0  0  0  0  0  0  0  0  0  0
   -0.3941   -2.4932    0.3469 O   0  0  0  0  0  0  0  0  0  0  0  0
    1.0400   -0.8114    0.9470 O   0  0  0  0  0  0  0  0  0  0  0  0
    2.1709   -1.6547    0.6398 C   0  0  0  0  0  0  0  0  0  0  0  0
    2.4594   -2.5713    1.8285 C   0  0  0  0  0  0  0  0  0  0  0  0
    3.3602   -0.7440    0.3622 C   0  0  0  0  0  0  0  0  0  0  0  0
    3.5782    0.3820    1.1852 C   0  0  0  0  0  0  0  0  0  0  0  0
    4.2805   -0.9722   -0.6975 C   0  0  0  0  0  0  0  0  0  0  0  0
    4.1558   -2.1373   -1.5605 N   0  0  0  0  0  4  0  0  0  0  0  0
    4.0841   -1.9312   -2.7785 O   0  0  0  0  0  1  0  0  0  0  0  0
    4.1496   -3.2469   -1.0128 O   0  0  0  0  0  0  0  0  0  0  0  0
    5.3599   -0.1127   -0.9605 C   0  0  0  0  0  0  0  0  0  0  0  0
    5.5109    0.9721   -0.1292 C   0  0  0  0  0  0  0  0  0  0  0  0
    4.6490    1.2113    0.9140 C   0  0  0  0  0  0  0  0  0  0  0  0
    6.4916    1.9090   -0.2169 O   0  0  0  0  0  0  0  0  0  0  0  0
    6.1457    2.7728    0.8868 C   0  0  0  0  0  0  0  0  0  0  0  0
    4.9792    2.3301    1.6124 O   0  0  0  0  0  0  0  0  0  0  0  0
   -7.8778    2.8930   -1.7524 H   0  0  0  0  0  0  0  0  0  0  0  0
   -5.9413    0.2978   -0.2595 H   0  0  0  0  0  0  0  0  0  0  0  0
   -7.2843   -0.2403   -2.1736 H   0  0  0  0  0  0  0  0  0  0  0  0
   -6.0586   -1.2952   -1.9382 H   0  0  0  0  0  0  0  0  0  0  0  0
   -3.9016    1.0589   -2.4358 H   0  0  0  0  0  0  0  0  0  0  0  0
   -3.7797   -0.4308   -1.5231 H   0  0  0  0  0  0  0  0  0  0  0  0
   -3.6569    2.3987   -0.3416 H   0  0  0  0  0  0  0  0  0  0  0  0
   -2.2856    1.3619   -0.6589 H   0  0  0  0  0  0  0  0  0  0  0  0
   -2.6507   -1.4384    2.0372 H   0  0  0  0  0  0  0  0  0  0  0  0
   -2.8005   -1.4295    0.2757 H   0  0  0  0  0  0  0  0  0  0  0  0
   -0.8315    0.3798    1.5513 H   0  0  0  0  0  0  0  0  0  0  0  0
    1.9330   -2.2418   -0.2530 H   0  0  0  0  0  0  0  0  0  0  0  0
    1.6183   -3.2480    2.0111 H   0  0  0  0  0  0  0  0  0  0  0  0
    2.5981   -1.9947    2.7504 H   0  0  0  0  0  0  0  0  0  0  0  0
    3.3564   -3.1768    1.6655 H   0  0  0  0  0  0  0  0  0  0  0  0
    2.9185    0.6108    2.0179 H   0  0  0  0  0  0  0  0  0  0  0  0
    6.0546   -0.2886   -1.7755 H   0  0  0  0  0  0  0  0  0  0  0  0
    5.9565    3.7802    0.4983 H   0  0  0  0  0  0  0  0  0  0  0  0
    6.9946    2.8148    1.5790 H   0  0  0  0  0  0  0  0  0  0  0  0
  1  2  2  0
  2  3  1  0
  2  4  1  0
  4  5  1  0
  4  6  1  0
  6  7  1  0
  7  8  1  0
  8  9  1  0
  9 10  1  0
 10 11  1  0
 11 12  2  0
 11 13  1  0
 13 14  1  0
 14 15  1  0
 14 16  1  0
 16 17  2  0
 16 18  1  0
 18 19  1  0
 19 20  1  0
 19 21  2  0
 18 22  2  0
 22 23  1  0
 23 24  2  0
 23 25  1  0
 25 26  1  0
 26 27  1  0
 24 17  1  0
 27 24  1  0
  3 28  1  0
  4 29  1  1
  5 30  1  0
  5 31  1  0
  6 32  1  0
  6 33  1  0
  7 34  1  0
  7 35  1  0
  9 36  1  0
  9 37  1  0
 10 38  1  0
 14 39  1  0
 15 40  1  0
 15 41  1  0
 15 42  1  0
 17 43  1  0
 22 44  1  0
 26 45  1  0
 26 46  1  0
M  CHG  2  19   1  20  -1
M  END
>  <Name>  (151) 
UB31_PCHcy

>  <canvasUID>  (151) 
161

>  <MW>  (151) 
401.3917

>  <AlogP>  (151) 
1.256

>  <HBA>  (151) 
5

>  <HBD>  (151) 
1

>  <RB>  (151) 
10

>  <PSA>  (151) 
188.55

>  <Estate>  (151) 
80.501

>  <Polar>  (151) 
39.407

>  <Chirality>  (151) 
[(3, 'S')]

$$$$

     RDKit          3D

 29 29  0  0  0  0  0  0  0  0999 V2000
   -4.5194   -1.2691   -0.3603 O   0  0  0  0  0  0  0  0  0  0  0  0
   -4.1130   -0.1607   -0.6701 C   0  0  0  0  0  0  0  0  0  0  0  0
   -4.9614    0.7264   -1.2416 O   0  0  0  0  0  0  0  0  0  0  0  0
   -2.6775    0.3706   -0.5269 C   0  0  1  0  0  0  0  0  0  0  0  0
   -2.6600    1.8572   -0.6334 N   0  0  0  0  0  0  0  0  0  0  0  0
   -2.0737   -0.1059    0.8070 C   0  0  0  0  0  0  0  0  0  0  0  0
   -0.5630   -0.1756    0.7879 C   0  0  0  0  0  0  0  0  0  0  0  0
    0.0865   -1.4084    0.6457 C   0  0  0  0  0  0  0  0  0  0  0  0
    1.4815   -1.4777    0.6174 C   0  0  0  0  0  0  0  0  0  0  0  0
    0.2096    0.9867    0.8913 C   0  0  0  0  0  0  0  0  0  0  0  0
    1.6045    0.9190    0.8600 C   0  0  0  0  0  0  0  0  0  0  0  0
    2.2541   -0.3150    0.7303 C   0  0  0  0  0  0  0  0  0  0  0  0
    3.7611   -0.3886    0.6892 C   0  0  0  0  0  0  0  0  0  0  0  0
    4.3375   -0.4452   -0.7042 C   0  0  0  0  0  0  0  0  0  0  0  0
    3.7538   -0.5835   -1.7653 O   0  0  0  0  0  0  0  0  0  0  0  0
    5.6859   -0.3468   -0.6905 O   0  0  0  0  0  0  0  0  0  0  0  0
   -5.8094    0.2366   -1.2939 H   0  0  0  0  0  0  0  0  0  0  0  0
   -2.1152   -0.0339   -1.3770 H   0  0  0  0  0  0  0  0  0  0  0  0
   -3.1687    2.0984   -1.4885 H   0  0  0  0  0  0  0  0  0  0  0  0
   -3.2379    2.2398    0.1155 H   0  0  0  0  0  0  0  0  0  0  0  0
   -2.4596   -1.0987    1.0724 H   0  0  0  0  0  0  0  0  0  0  0  0
   -2.3934    0.5438    1.6334 H   0  0  0  0  0  0  0  0  0  0  0  0
   -0.4888   -2.3268    0.5513 H   0  0  0  0  0  0  0  0  0  0  0  0
    1.9598   -2.4473    0.4978 H   0  0  0  0  0  0  0  0  0  0  0  0
   -0.2727    1.9578    0.9831 H   0  0  0  0  0  0  0  0  0  0  0  0
    2.1768    1.8410    0.9325 H   0  0  0  0  0  0  0  0  0  0  0  0
    4.0945   -1.2781    1.2368 H   0  0  0  0  0  0  0  0  0  0  0  0
    4.1797    0.4870    1.2001 H   0  0  0  0  0  0  0  0  0  0  0  0
    5.9286   -0.4031   -1.6390 H   0  0  0  0  0  0  0  0  0  0  0  0
  1  2  2  0
  2  3  1  0
  2  4  1  0
  4  5  1  0
  4  6  1  0
  6  7  1  0
  7  8  2  0
  8  9  1  0
  7 10  1  0
 10 11  2  0
 11 12  1  0
 12 13  1  0
 13 14  1  0
 14 15  2  0
 14 16  1  0
 12  9  2  0
  3 17  1  0
  4 18  1  6
  5 19  1  0
  5 20  1  0
  6 21  1  0
  6 22  1  0
  8 23  1  0
  9 24  1  0
 10 25  1  0
 11 26  1  0
 13 27  1  0
 13 28  1  0
 16 29  1  0
M  END
>  <Name>  (152) 
UB32_pCmF

>  <canvasUID>  (152) 
162

>  <MW>  (152) 
223.2252

>  <AlogP>  (152) 
0.4878

>  <HBA>  (152) 
0

>  <HBD>  (152) 
0

>  <RB>  (152) 
5

>  <PSA>  (152) 
100.62

>  <Estate>  (152) 
51.001

>  <Polar>  (152) 
25.67

>  <Chirality>  (152) 
[(3, 'S')]

$$$$

     RDKit          3D

 26 26  0  0  0  0  0  0  0  0999 V2000
   -3.8522    0.0617   -1.9248 O   0  0  0  0  0  0  0  0  0  0  0  0
   -3.5934   -0.0264   -0.7356 C   0  0  0  0  0  0  0  0  0  0  0  0
   -4.5913   -0.2040    0.1635 O   0  0  0  0  0  0  0  0  0  0  0  0
   -2.2181    0.1175   -0.0716 C   0  0  1  0  0  0  0  0  0  0  0  0
   -2.1082   -0.8221    1.0712 N   0  0  0  0  0  0  0  0  0  0  0  0
   -1.1072   -0.1276   -1.1066 C   0  0  0  0  0  0  0  0  0  0  0  0
    0.2802    0.1879   -0.5894 C   0  0  0  0  0  0  0  0  0  0  0  0
    1.1192   -0.8389   -0.1301 C   0  0  0  0  0  0  0  0  0  0  0  0
    2.4033   -0.5390    0.3562 C   0  0  0  0  0  0  0  0  0  0  0  0
    3.2550   -1.6344    0.8252 N   0  0  0  0  0  4  0  0  0  0  0  0
    2.8066   -2.7878    0.7767 O   0  0  0  0  0  1  0  0  0  0  0  0
    4.3848   -1.3387    1.2487 O   0  0  0  0  0  0  0  0  0  0  0  0
    2.8507    0.7882    0.3898 C   0  0  0  0  0  0  0  0  0  0  0  0
    4.0744    1.2006    0.8429 O   0  0  0  0  0  0  0  0  0  0  0  0
    2.0142    1.8072   -0.0642 C   0  0  0  0  0  0  0  0  0  0  0  0
    0.7385    1.5114   -0.5504 C   0  0  0  0  0  0  0  0  0  0  0  0
   -5.3936   -0.2896   -0.3931 H   0  0  0  0  0  0  0  0  0  0  0  0
   -2.1645    1.1439    0.3115 H   0  0  0  0  0  0  0  0  0  0  0  0
   -2.9608   -0.7274    1.6303 H   0  0  0  0  0  0  0  0  0  0  0  0
   -1.3387   -0.5252    1.6697 H   0  0  0  0  0  0  0  0  0  0  0  0
   -1.2817    0.4863   -2.0007 H   0  0  0  0  0  0  0  0  0  0  0  0
   -1.1434   -1.1657   -1.4648 H   0  0  0  0  0  0  0  0  0  0  0  0
    0.7586   -1.8672   -0.1535 H   0  0  0  0  0  0  0  0  0  0  0  0
    4.6008    0.4257    1.1333 H   0  0  0  0  0  0  0  0  0  0  0  0
    2.3591    2.8388   -0.0422 H   0  0  0  0  0  0  0  0  0  0  0  0
    0.1076    2.3249   -0.9046 H   0  0  0  0  0  0  0  0  0  0  0  0
  1  2  2  0
  2  3  1  0
  2  4  1  0
  4  5  1  0
  4  6  1  0
  6  7  1  0
  7  8  2  0
  8  9  1  0
  9 10  1  0
 10 11  1  0
 10 12  2  0
  9 13  2  0
 13 14  1  0
 13 15  1  0
 15 16  2  0
 16  7  1  0
  3 17  1  0
  4 18  1  1
  5 19  1  0
  5 20  1  0
  6 21  1  0
  6 22  1  0
  8 23  1  0
 14 24  1  0
 15 25  1  0
 16 26  1  0
M  CHG  2  10   1  11  -1
M  END
>  <Name>  (153) 
UB33_3NO2Y

>  <canvasUID>  (153) 
164

>  <MW>  (153) 
226.1861

>  <AlogP>  (153) 
0.4756

>  <HBA>  (153) 
1

>  <HBD>  (153) 
1

>  <RB>  (153) 
4

>  <PSA>  (153) 
126.69

>  <Estate>  (153) 
55.501

>  <Polar>  (153) 
23.46

>  <Chirality>  (153) 
[(3, 'S')]

$$$$

     RDKit          3D

 36 36  0  0  0  0  0  0  0  0999 V2000
    4.3721    1.0734   -1.2149 C   0  0  0  0  0  0  0  0  0  0  0  0
    4.3182    0.5312    0.2117 C   0  0  0  0  0  0  0  0  0  0  0  0
    4.9909   -1.3263    0.1902 Br  0  0  0  0  0  0  0  0  0  0  0  0
    5.2311    1.3369    1.1346 C   0  0  0  0  0  0  0  0  0  0  0  0
    2.8700    0.4844    0.7396 C   0  0  0  0  0  0  0  0  0  0  0  0
    2.5144    1.2024    1.6718 O   0  0  0  0  0  0  0  0  0  0  0  0
    2.0408   -0.3737    0.0310 N   0  0  0  0  0  0  0  0  0  0  0  0
    0.6599   -0.5917    0.2097 C   0  0  0  0  0  0  0  0  0  0  0  0
    0.0639   -1.5800   -0.5825 C   0  0  0  0  0  0  0  0  0  0  0  0
   -1.3023   -1.8566   -0.4742 C   0  0  0  0  0  0  0  0  0  0  0  0
   -0.1357    0.1157    1.1101 C   0  0  0  0  0  0  0  0  0  0  0  0
   -1.5038   -0.1611    1.2211 C   0  0  0  0  0  0  0  0  0  0  0  0
   -2.1014   -1.1471    0.4285 C   0  0  0  0  0  0  0  0  0  0  0  0
   -3.5833   -1.4370    0.5364 C   0  0  0  0  0  0  0  0  0  0  0  0
   -4.4889   -0.6001   -0.3859 C   0  0  2  0  0  0  0  0  0  0  0  0
   -4.1611   -0.7777   -1.8269 N   0  0  0  0  0  0  0  0  0  0  0  0
   -4.4780    0.8797    0.0195 C   0  0  0  0  0  0  0  0  0  0  0  0
   -4.5700    1.3218    1.1540 O   0  0  0  0  0  0  0  0  0  0  0  0
   -4.3985    1.7297   -1.0303 O   0  0  0  0  0  0  0  0  0  0  0  0
    5.4004    1.1084   -1.5927 H   0  0  0  0  0  0  0  0  0  0  0  0
    3.7898    0.4636   -1.9149 H   0  0  0  0  0  0  0  0  0  0  0  0
    3.9644    2.0900   -1.2577 H   0  0  0  0  0  0  0  0  0  0  0  0
    5.2116    0.9486    2.1599 H   0  0  0  0  0  0  0  0  0  0  0  0
    6.2725    1.3164    0.7933 H   0  0  0  0  0  0  0  0  0  0  0  0
    4.9165    2.3859    1.1790 H   0  0  0  0  0  0  0  0  0  0  0  0
    2.5005   -0.9845   -0.6347 H   0  0  0  0  0  0  0  0  0  0  0  0
    0.6511   -2.1535   -1.2951 H   0  0  0  0  0  0  0  0  0  0  0  0
   -1.7408   -2.6299   -1.1027 H   0  0  0  0  0  0  0  0  0  0  0  0
    0.2736    0.8923    1.7483 H   0  0  0  0  0  0  0  0  0  0  0  0
   -2.0941    0.4034    1.9415 H   0  0  0  0  0  0  0  0  0  0  0  0
   -3.8902   -1.2971    1.5817 H   0  0  0  0  0  0  0  0  0  0  0  0
   -3.7469   -2.5035    0.3302 H   0  0  0  0  0  0  0  0  0  0  0  0
   -5.5249   -0.9359   -0.2570 H   0  0  0  0  0  0  0  0  0  0  0  0
   -3.2015   -0.4513   -1.9651 H   0  0  0  0  0  0  0  0  0  0  0  0
   -4.7200   -0.0931   -2.3443 H   0  0  0  0  0  0  0  0  0  0  0  0
   -4.4005    2.6164   -0.6116 H   0  0  0  0  0  0  0  0  0  0  0  0
  1  2  1  0
  2  3  1  0
  2  4  1  0
  2  5  1  0
  5  6  2  0
  5  7  1  0
  7  8  1  0
  8  9  2  0
  9 10  1  0
  8 11  1  0
 11 12  2  0
 12 13  1  0
 13 14  1  0
 14 15  1  0
 15 16  1  0
 15 17  1  0
 17 18  2  0
 17 19  1  0
 13 10  2  0
  1 20  1  0
  1 21  1  0
  1 22  1  0
  4 23  1  0
  4 24  1  0
  4 25  1  0
  7 26  1  0
  9 27  1  0
 10 28  1  0
 11 29  1  0
 12 30  1  0
 14 31  1  0
 14 32  1  0
 15 33  1  6
 16 34  1  0
 16 35  1  0
 19 36  1  0
M  END
>  <Name>  (154) 
UB34_BrbF

>  <canvasUID>  (154) 
165

>  <MW>  (154) 
329.1897

>  <AlogP>  (154) 
1.442

>  <HBA>  (154) 
1

>  <HBD>  (154) 
1

>  <RB>  (154) 
5

>  <PSA>  (154) 
92.42

>  <Estate>  (154) 
53.001

>  <Polar>  (154) 
32.68

>  <Chirality>  (154) 
[(14, 'S')]

$$$$

     RDKit          3D

 37 37  0  0  0  0  0  0  0  0999 V2000
    6.2725   -0.2189    1.0034 O   0  0  0  0  0  0  0  0  0  0  0  0
    5.6145   -0.4288   -0.0048 C   0  0  0  0  0  0  0  0  0  0  0  0
    6.1951   -0.3929   -1.2190 O   0  0  0  0  0  0  0  0  0  0  0  0
    4.1212   -0.7720   -0.0539 C   0  0  1  0  0  0  0  0  0  0  0  0
    3.6468   -1.0796    1.3233 N   0  0  0  0  0  0  0  0  0  0  0  0
    3.3641    0.4046   -0.6891 C   0  0  0  0  0  0  0  0  0  0  0  0
    1.6527    0.0162   -1.2200 S   0  0  0  0  0  0  0  0  0  0  0  0
    0.8437   -0.1327    0.4049 C   0  0  0  0  0  0  0  0  0  0  0  0
   -0.6402    0.1389    0.2926 C   0  0  0  0  0  0  0  0  0  0  0  0
   -1.1911    1.4201    0.1101 C   0  0  0  0  0  0  0  0  0  0  0  0
   -0.3473    2.6102    0.0596 N   0  0  0  0  0  4  0  0  0  0  0  0
    0.4552    2.7834    0.9868 O   0  0  0  0  0  1  0  0  0  0  0  0
   -0.5260    3.3904   -0.8857 O   0  0  0  0  0  0  0  0  0  0  0  0
   -2.5734    1.6208   -0.0325 C   0  0  0  0  0  0  0  0  0  0  0  0
   -3.4396    0.5276    0.0098 C   0  0  0  0  0  0  0  0  0  0  0  0
   -4.8040    0.6157   -0.1113 O   0  0  0  0  0  0  0  0  0  0  0  0
   -5.3630    1.8859   -0.4165 C   0  0  0  0  0  0  0  0  0  0  0  0
   -2.9165   -0.7687    0.1937 C   0  0  0  0  0  0  0  0  0  0  0  0
   -1.5319   -0.9508    0.3284 C   0  0  0  0  0  0  0  0  0  0  0  0
   -3.8372   -1.7867    0.2256 O   0  0  0  0  0  0  0  0  0  0  0  0
   -3.3539   -3.1175    0.3390 C   0  0  0  0  0  0  0  0  0  0  0  0
    7.1362   -0.1834   -1.0371 H   0  0  0  0  0  0  0  0  0  0  0  0
    4.0153   -1.6817   -0.6565 H   0  0  0  0  0  0  0  0  0  0  0  0
    3.9193   -0.2985    1.9288 H   0  0  0  0  0  0  0  0  0  0  0  0
    4.2036   -1.8614    1.6781 H   0  0  0  0  0  0  0  0  0  0  0  0
    3.8847    0.7367   -1.5945 H   0  0  0  0  0  0  0  0  0  0  0  0
    3.3436    1.2730   -0.0198 H   0  0  0  0  0  0  0  0  0  0  0  0
    1.2966    0.5320    1.1445 H   0  0  0  0  0  0  0  0  0  0  0  0
    1.0012   -1.1541    0.7674 H   0  0  0  0  0  0  0  0  0  0  0  0
   -2.9464    2.6311   -0.1710 H   0  0  0  0  0  0  0  0  0  0  0  0
   -4.9714    2.2749   -1.3622 H   0  0  0  0  0  0  0  0  0  0  0  0
   -5.1985    2.5941    0.4020 H   0  0  0  0  0  0  0  0  0  0  0  0
   -6.4435    1.7568   -0.5319 H   0  0  0  0  0  0  0  0  0  0  0  0
   -1.1178   -1.9474    0.4563 H   0  0  0  0  0  0  0  0  0  0  0  0
   -2.8375   -3.2692    1.2924 H   0  0  0  0  0  0  0  0  0  0  0  0
   -2.7100   -3.3784   -0.5073 H   0  0  0  0  0  0  0  0  0  0  0  0
   -4.2172   -3.7896    0.3187 H   0  0  0  0  0  0  0  0  0  0  0  0
  1  2  2  0
  2  3  1  0
  2  4  1  0
  4  5  1  0
  4  6  1  0
  6  7  1  0
  7  8  1  0
  8  9  1  0
  9 10  2  0
 10 11  1  0
 11 12  1  0
 11 13  2  0
 10 14  1  0
 14 15  2  0
 15 16  1  0
 16 17  1  0
 15 18  1  0
 18 19  2  0
 18 20  1  0
 20 21  1  0
 19  9  1  0
  3 22  1  0
  4 23  1  6
  5 24  1  0
  5 25  1  0
  6 26  1  0
  6 27  1  0
  8 28  1  0
  8 29  1  0
 14 30  1  0
 17 31  1  0
 17 32  1  0
 17 33  1  0
 19 34  1  0
 21 35  1  0
 21 36  1  0
 21 37  1  0
M  CHG  2  11   1  12  -1
M  END
>  <Name>  (155) 
UB35_dmnC

>  <canvasUID>  (155) 
167

>  <MW>  (155) 
316.3302

>  <AlogP>  (155) 
1.0028

>  <HBA>  (155) 
3

>  <HBD>  (155) 
0

>  <RB>  (155) 
8

>  <PSA>  (155) 
150.22

>  <Estate>  (155) 
63.501

>  <Polar>  (155) 
32.602

>  <Chirality>  (155) 
[(3, 'R')]

$$$$

     RDKit          3D

 20 20  0  0  0  0  0  0  0  0999 V2000
   -3.2257   -0.6498   -0.8273 O   0  0  0  0  0  0  0  0  0  0  0  0
   -2.3559    0.0887   -0.3889 C   0  0  0  0  0  0  0  0  0  0  0  0
   -2.4500    1.4225   -0.5555 O   0  0  0  0  0  0  0  0  0  0  0  0
   -1.1126   -0.3389    0.3978 C   0  0  1  0  0  0  0  0  0  0  0  0
   -1.2066   -1.7832    0.7355 N   0  0  0  0  0  0  0  0  0  0  0  0
    0.1518   -0.0466   -0.4243 C   0  0  0  0  0  0  0  0  0  0  0  0
    1.4131   -0.2268    0.3749 C   0  0  0  0  0  0  0  0  0  0  0  0
    2.6786    0.4736   -0.0473 C   0  0  0  0  0  0  0  0  0  0  0  0
    1.9618    0.9067    1.2020 C   0  0  0  0  0  0  0  0  0  0  0  0
   -3.2879    1.5439   -1.0500 H   0  0  0  0  0  0  0  0  0  0  0  0
   -1.1044    0.2202    1.3404 H   0  0  0  0  0  0  0  0  0  0  0  0
   -2.0921   -1.9372    1.2219 H   0  0  0  0  0  0  0  0  0  0  0  0
   -1.3077   -2.3062   -0.1375 H   0  0  0  0  0  0  0  0  0  0  0  0
    0.1911   -0.7047   -1.3023 H   0  0  0  0  0  0  0  0  0  0  0  0
    0.1096    0.9761   -0.8208 H   0  0  0  0  0  0  0  0  0  0  0  0
    1.5124   -1.2348    0.7650 H   0  0  0  0  0  0  0  0  0  0  0  0
    2.6486    1.1357   -0.9050 H   0  0  0  0  0  0  0  0  0  0  0  0
    3.6147   -0.0622    0.0647 H   0  0  0  0  0  0  0  0  0  0  0  0
    2.4120    0.6616    2.1575 H   0  0  0  0  0  0  0  0  0  0  0  0
    1.4490    1.8615    1.1869 H   0  0  0  0  0  0  0  0  0  0  0  0
  1  2  2  0
  2  3  1  0
  2  4  1  0
  4  5  1  0
  4  6  1  0
  6  7  1  0
  7  8  1  0
  8  9  1  0
  9  7  1  0
  3 10  1  0
  4 11  1  1
  5 12  1  0
  5 13  1  0
  6 14  1  0
  6 15  1  0
  7 16  1  0
  8 17  1  0
  8 18  1  0
  9 19  1  0
  9 20  1  0
M  END
>  <Name>  (156) 
UB36_CpA

>  <canvasUID>  (156) 
168

>  <MW>  (156) 
129.157

>  <AlogP>  (156) 
0.1528

>  <HBA>  (156) 
0

>  <HBD>  (156) 
0

>  <RB>  (156) 
3

>  <PSA>  (156) 
63.32

>  <Estate>  (156) 
26.833

>  <Polar>  (156) 
13.084

>  <Chirality>  (156) 
[(3, 'S')]

$$$$

     RDKit          3D

 24 24  0  0  0  0  0  0  0  0999 V2000
    3.9493   -1.4731   -0.5652 O   0  0  0  0  0  0  0  0  0  0  0  0
    2.8803   -1.0947   -1.0207 C   0  0  0  0  0  0  0  0  0  0  0  0
    2.7876   -0.6990   -2.3053 O   0  0  0  0  0  0  0  0  0  0  0  0
    1.5471   -1.0277   -0.2698 C   0  0  1  0  0  0  0  0  0  0  0  0
    1.6696   -1.7588    1.0205 N   0  0  0  0  0  0  0  0  0  0  0  0
    1.1591    0.4441   -0.0495 C   0  0  0  0  0  0  0  0  0  0  0  0
   -0.3156    0.6374    0.2227 C   0  0  0  0  0  0  0  0  0  0  0  0
   -1.1859    0.9998   -0.8145 C   0  0  0  0  0  0  0  0  0  0  0  0
   -2.5447    1.1664   -0.5589 C   0  0  0  0  0  0  0  0  0  0  0  0
   -3.3556    1.5159   -1.5684 F   0  0  0  0  0  0  0  0  0  0  0  0
   -3.0551    0.9717    0.7218 C   0  0  0  0  0  0  0  0  0  0  0  0
   -4.3929    1.1412    0.9389 O   0  0  0  0  0  0  0  0  0  0  0  0
   -2.2048    0.6059    1.7614 C   0  0  0  0  0  0  0  0  0  0  0  0
   -0.8391    0.4388    1.5096 C   0  0  0  0  0  0  0  0  0  0  0  0
    3.6945   -0.8130   -2.6610 H   0  0  0  0  0  0  0  0  0  0  0  0
    0.7998   -1.5510   -0.8782 H   0  0  0  0  0  0  0  0  0  0  0  0
    2.4930   -1.3975    1.5094 H   0  0  0  0  0  0  0  0  0  0  0  0
    1.9136   -2.7291    0.8114 H   0  0  0  0  0  0  0  0  0  0  0  0
    1.4310    1.0488   -0.9250 H   0  0  0  0  0  0  0  0  0  0  0  0
    1.7399    0.8789    0.7758 H   0  0  0  0  0  0  0  0  0  0  0  0
   -0.8232    1.1564   -1.8261 H   0  0  0  0  0  0  0  0  0  0  0  0
   -4.5867    0.9565    1.8717 H   0  0  0  0  0  0  0  0  0  0  0  0
   -2.5801    0.4422    2.7667 H   0  0  0  0  0  0  0  0  0  0  0  0
   -0.1812    0.1400    2.3244 H   0  0  0  0  0  0  0  0  0  0  0  0
  1  2  2  0
  2  3  1  0
  2  4  1  0
  4  5  1  0
  4  6  1  0
  6  7  1  0
  7  8  2  0
  8  9  1  0
  9 10  1  0
  9 11  2  0
 11 12  1  0
 11 13  1  0
 13 14  2  0
 14  7  1  0
  3 15  1  0
  4 16  1  6
  5 17  1  0
  5 18  1  0
  6 19  1  0
  6 20  1  0
  8 21  1  0
 12 22  1  0
 13 23  1  0
 14 24  1  0
M  END
>  <Name>  (157) 
UB37_3FY

>  <canvasUID>  (157) 
169

>  <MW>  (157) 
199.179

>  <AlogP>  (157) 
0.7867

>  <HBA>  (157) 
1

>  <HBD>  (157) 
1

>  <RB>  (157) 
3

>  <PSA>  (157) 
83.55

>  <Estate>  (157) 
47.501

>  <Polar>  (157) 
21.823

>  <Chirality>  (157) 
[(3, 'S')]

$$$$

     RDKit          3D

 24 24  0  0  0  0  0  0  0  0999 V2000
   -3.6301    2.0498    0.1588 O   0  0  0  0  0  0  0  0  0  0  0  0
   -3.2732    0.8821    0.1486 C   0  0  0  0  0  0  0  0  0  0  0  0
   -4.0876   -0.0754   -0.3518 O   0  0  0  0  0  0  0  0  0  0  0  0
   -1.9029    0.3571    0.5803 C   0  0  1  0  0  0  0  0  0  0  0  0
   -2.0246   -1.0158    1.1255 N   0  0  0  0  0  0  0  0  0  0  0  0
   -0.9620    0.4491   -0.6335 C   0  0  0  0  0  0  0  0  0  0  0  0
    0.4840    0.1452   -0.3113 C   0  0  0  0  0  0  0  0  0  0  0  0
    1.2550    1.0555    0.4257 C   0  0  0  0  0  0  0  0  0  0  0  0
    2.5889    0.7675    0.7267 C   0  0  0  0  0  0  0  0  0  0  0  0
    3.5904    2.0293    1.7275 Br  0  0  0  0  0  0  0  0  0  0  0  0
    3.1707   -0.4283    0.2974 C   0  0  0  0  0  0  0  0  0  0  0  0
    4.4771   -0.7204    0.5890 O   0  0  0  0  0  0  0  0  0  0  0  0
    2.4089   -1.3370   -0.4390 C   0  0  0  0  0  0  0  0  0  0  0  0
    3.1388   -2.9775   -1.0516 Br  0  0  0  0  0  0  0  0  0  0  0  0
    1.0732   -1.0525   -0.7428 C   0  0  0  0  0  0  0  0  0  0  0  0
   -4.9160    0.4063   -0.5576 H   0  0  0  0  0  0  0  0  0  0  0  0
   -1.5545    0.9989    1.3974 H   0  0  0  0  0  0  0  0  0  0  0  0
   -1.1017   -1.4410    1.1973 H   0  0  0  0  0  0  0  0  0  0  0  0
   -2.5585   -1.5771    0.4580 H   0  0  0  0  0  0  0  0  0  0  0  0
   -1.0080    1.4574   -1.0676 H   0  0  0  0  0  0  0  0  0  0  0  0
   -1.3136   -0.2194   -1.4315 H   0  0  0  0  0  0  0  0  0  0  0  0
    0.8136    1.9916    0.7633 H   0  0  0  0  0  0  0  0  0  0  0  0
    4.8428    0.0222    1.1026 H   0  0  0  0  0  0  0  0  0  0  0  0
    0.4895   -1.7678   -1.3194 H   0  0  0  0  0  0  0  0  0  0  0  0
  1  2  2  0
  2  3  1  0
  2  4  1  0
  4  5  1  0
  4  6  1  0
  6  7  1  0
  7  8  2  0
  8  9  1  0
  9 10  1  0
  9 11  2  0
 11 12  1  0
 11 13  1  0
 13 14  1  0
 13 15  2  0
 15  7  1  0
  3 16  1  0
  4 17  1  1
  5 18  1  0
  5 19  1  0
  6 20  1  0
  6 21  1  0
  8 22  1  0
 12 23  1  0
 15 24  1  0
M  END
>  <Name>  (158) 
UB38_Br2Y

>  <canvasUID>  (158) 
170

>  <MW>  (158) 
338.9807

>  <AlogP>  (158) 
2.078

>  <HBA>  (158) 
1

>  <HBD>  (158) 
1

>  <RB>  (158) 
3

>  <PSA>  (158) 
83.55

>  <Estate>  (158) 
44.668

>  <Polar>  (158) 
27.166

>  <Chirality>  (158) 
[(3, 'S')]

$$$$

     RDKit          3D

 28 28  0  0  0  0  0  0  0  0999 V2000
   -4.4647   -0.7933    0.5041 O   0  0  0  0  0  0  0  0  0  0  0  0
   -3.9283    0.1529   -0.0497 C   0  0  0  0  0  0  0  0  0  0  0  0
   -4.6837    1.1822   -0.4993 O   0  0  0  0  0  0  0  0  0  0  0  0
   -2.4309    0.3122   -0.3568 C   0  0  1  0  0  0  0  0  0  0  0  0
   -2.1110    1.7312   -0.6749 N   0  0  0  0  0  0  0  0  0  0  0  0
   -1.5998   -0.2029    0.8320 C   0  0  0  0  0  0  0  0  0  0  0  0
   -0.1774   -0.5586    0.4607 C   0  0  0  0  0  0  0  0  0  0  0  0
    0.8106    0.4349    0.3782 C   0  0  0  0  0  0  0  0  0  0  0  0
    0.1702   -1.8851    0.1794 C   0  0  0  0  0  0  0  0  0  0  0  0
    1.4800   -2.2130   -0.1738 C   0  0  0  0  0  0  0  0  0  0  0  0
    2.4535   -1.2145   -0.2479 C   0  0  0  0  0  0  0  0  0  0  0  0
    3.7271   -1.5515   -0.6229 O   0  0  0  0  0  0  0  0  0  0  0  0
    2.1363    0.1215    0.0374 C   0  0  0  0  0  0  0  0  0  0  0  0
    3.0953    1.2336   -0.0465 C   0  0  0  0  0  0  0  0  0  0  0  0
    4.3037    1.2237    0.5297 C   0  0  0  0  0  0  0  0  0  0  0  0
   -5.5989    0.9238   -0.2592 H   0  0  0  0  0  0  0  0  0  0  0  0
   -2.2356   -0.2850   -1.2555 H   0  0  0  0  0  0  0  0  0  0  0  0
   -2.3314    2.3033    0.1408 H   0  0  0  0  0  0  0  0  0  0  0  0
   -2.7842    2.0372   -1.3831 H   0  0  0  0  0  0  0  0  0  0  0  0
   -2.0696   -1.0924    1.2722 H   0  0  0  0  0  0  0  0  0  0  0  0
   -1.5896    0.5348    1.6462 H   0  0  0  0  0  0  0  0  0  0  0  0
    0.5411    1.4699    0.5831 H   0  0  0  0  0  0  0  0  0  0  0  0
   -0.5778   -2.6735    0.2318 H   0  0  0  0  0  0  0  0  0  0  0  0
    1.7215   -3.2488   -0.3914 H   0  0  0  0  0  0  0  0  0  0  0  0
    3.7549   -2.4988   -0.8278 H   0  0  0  0  0  0  0  0  0  0  0  0
    2.7617    2.1120   -0.5924 H   0  0  0  0  0  0  0  0  0  0  0  0
    4.6611    0.3665    1.0918 H   0  0  0  0  0  0  0  0  0  0  0  0
    4.9658    2.0779    0.4413 H   0  0  0  0  0  0  0  0  0  0  0  0
  1  2  2  0
  2  3  1  0
  2  4  1  0
  4  5  1  0
  4  6  1  0
  6  7  1  0
  7  8  2  0
  7  9  1  0
  9 10  2  0
 10 11  1  0
 11 12  1  0
 11 13  2  0
 13 14  1  0
 14 15  2  3
 13  8  1  0
  3 16  1  0
  4 17  1  6
  5 18  1  0
  5 19  1  0
  6 20  1  0
  6 21  1  0
  8 22  1  0
  9 23  1  0
 10 24  1  0
 12 25  1  0
 14 26  1  0
 15 27  1  0
 15 28  1  0
M  END
>  <Name>  (159) 
UB39_3VY

>  <canvasUID>  (159) 
171

>  <MW>  (159) 
207.2258

>  <AlogP>  (159) 
1.1329

>  <HBA>  (159) 
1

>  <HBD>  (159) 
1

>  <RB>  (159) 
4

>  <PSA>  (159) 
83.55

>  <Estate>  (159) 
44.501

>  <Polar>  (159) 
25.392

>  <Chirality>  (159) 
[(3, 'S')]

$$$$

     RDKit          3D

 25 25  0  0  0  0  0  0  0  0999 V2000
    5.1597    0.0017    0.6827 C   0  0  0  0  0  0  0  0  0  0  0  0
    4.0012   -0.0374    0.3692 C   0  0  0  0  0  0  0  0  0  0  0  0
    2.6207   -0.0836   -0.0037 C   0  0  0  0  0  0  0  0  0  0  0  0
    2.0903    0.8930   -0.8470 C   0  0  0  0  0  0  0  0  0  0  0  0
    0.7417    0.8484   -1.2104 C   0  0  0  0  0  0  0  0  0  0  0  0
   -0.0922   -0.1729   -0.7325 C   0  0  0  0  0  0  0  0  0  0  0  0
    0.4519   -1.1524    0.1094 C   0  0  0  0  0  0  0  0  0  0  0  0
    1.8005   -1.1064    0.4732 C   0  0  0  0  0  0  0  0  0  0  0  0
   -1.5552   -0.2118   -1.1181 C   0  0  0  0  0  0  0  0  0  0  0  0
   -2.5274    0.4161   -0.1006 C   0  0  2  0  0  0  0  0  0  0  0  0
   -2.1910    1.8105    0.2696 N   0  0  0  0  0  0  0  0  0  0  0  0
   -2.6449   -0.4534    1.1549 C   0  0  0  0  0  0  0  0  0  0  0  0
   -2.1941   -0.2179    2.2654 O   0  0  0  0  0  0  0  0  0  0  0  0
   -3.3235   -1.5999    0.9337 O   0  0  0  0  0  0  0  0  0  0  0  0
    6.1869    0.0363    0.9619 H   0  0  0  0  0  0  0  0  0  0  0  0
    2.7222    1.6926   -1.2262 H   0  0  0  0  0  0  0  0  0  0  0  0
    0.3504    1.6180   -1.8720 H   0  0  0  0  0  0  0  0  0  0  0  0
   -0.1663   -1.9618    0.4914 H   0  0  0  0  0  0  0  0  0  0  0  0
    2.2041   -1.8726    1.1310 H   0  0  0  0  0  0  0  0  0  0  0  0
   -1.6754    0.2989   -2.0833 H   0  0  0  0  0  0  0  0  0  0  0  0
   -1.8340   -1.2566   -1.3095 H   0  0  0  0  0  0  0  0  0  0  0  0
   -3.5277    0.4507   -0.5495 H   0  0  0  0  0  0  0  0  0  0  0  0
   -1.4144    1.7779    0.9374 H   0  0  0  0  0  0  0  0  0  0  0  0
   -1.8361    2.3055   -0.5453 H   0  0  0  0  0  0  0  0  0  0  0  0
   -3.3475   -2.0229    1.8183 H   0  0  0  0  0  0  0  0  0  0  0  0
  1  2  3  0
  2  3  1  0
  3  4  2  0
  4  5  1  0
  5  6  2  0
  6  7  1  0
  7  8  2  0
  6  9  1  0
  9 10  1  0
 10 11  1  0
 10 12  1  0
 12 13  2  0
 12 14  1  0
  8  3  1  0
  1 15  1  0
  4 16  1  0
  5 17  1  0
  7 18  1  0
  8 19  1  0
  9 20  1  0
  9 21  1  0
 10 22  1  6
 11 23  1  0
 11 24  1  0
 14 25  1  0
M  END
>  <Name>  (160) 
UB40_pETF

>  <canvasUID>  (160) 
172

>  <MW>  (160) 
189.2105

>  <AlogP>  (160) 
1.9757

>  <HBA>  (160) 
0

>  <HBD>  (160) 
1

>  <RB>  (160) 
3

>  <PSA>  (160) 
63.32

>  <Estate>  (160) 
40.334

>  <Polar>  (160) 
23.843

>  <Chirality>  (160) 
[(9, 'S')]

$$$$

     RDKit          3D

 34 35  0  0  0  0  0  0  0  0999 V2000
   -3.3807    0.0395    2.4432 O   0  0  0  0  0  0  0  0  0  0  0  0
   -3.9088    0.0783    1.3429 C   0  0  0  0  0  0  0  0  0  0  0  0
   -4.7066    1.1164    1.0027 O   0  0  0  0  0  0  0  0  0  0  0  0
   -3.6998   -0.9284    0.2053 C   0  0  1  0  0  0  0  0  0  0  0  0
   -4.9543   -1.0824   -0.5654 N   0  0  0  0  0  0  0  0  0  0  0  0
   -2.5564   -0.4780   -0.7159 C   0  0  0  0  0  0  0  0  0  0  0  0
   -1.1947   -0.4664    0.0032 C   0  0  0  0  0  0  0  0  0  0  0  0
    0.0238   -0.1217   -0.8338 C   0  0  0  0  0  0  0  0  0  0  0  0
   -0.0214    0.1972   -2.1373 C   0  0  0  0  0  0  0  0  0  0  0  0
    1.1612    0.5271   -2.9487 C   0  0  0  0  0  0  0  0  0  0  0  0
    1.0416    0.8105   -4.1354 O   0  0  0  0  0  0  0  0  0  0  0  0
    2.3862    0.4978   -2.3132 O   0  0  0  0  0  0  0  0  0  0  0  0
    2.4811    0.1739   -0.9473 C   0  0  0  0  0  0  0  0  0  0  0  0
    1.3513   -0.1316   -0.1857 C   0  0  0  0  0  0  0  0  0  0  0  0
    3.7696    0.1830   -0.4064 C   0  0  0  0  0  0  0  0  0  0  0  0
    3.9585   -0.1299    0.9409 C   0  0  0  0  0  0  0  0  0  0  0  0
    5.3290   -0.0920    1.5482 C   0  0  0  0  0  0  0  0  0  0  0  0
    2.8390   -0.4219    1.7266 C   0  0  0  0  0  0  0  0  0  0  0  0
    1.5526   -0.4274    1.1690 C   0  0  0  0  0  0  0  0  0  0  0  0
   -4.7571    1.6516    1.8222 H   0  0  0  0  0  0  0  0  0  0  0  0
   -3.4731   -1.9007    0.6562 H   0  0  0  0  0  0  0  0  0  0  0  0
   -5.3067   -0.1470   -0.7857 H   0  0  0  0  0  0  0  0  0  0  0  0
   -4.7672   -1.5407   -1.4548 H   0  0  0  0  0  0  0  0  0  0  0  0
   -2.5003   -1.1635   -1.5717 H   0  0  0  0  0  0  0  0  0  0  0  0
   -2.7692    0.5241   -1.1112 H   0  0  0  0  0  0  0  0  0  0  0  0
   -1.0426   -1.4615    0.4416 H   0  0  0  0  0  0  0  0  0  0  0  0
   -1.2465    0.2540    0.8286 H   0  0  0  0  0  0  0  0  0  0  0  0
   -0.9464    0.2365   -2.6995 H   0  0  0  0  0  0  0  0  0  0  0  0
    4.6159    0.4343   -1.0409 H   0  0  0  0  0  0  0  0  0  0  0  0
    5.4108   -0.8085    2.3722 H   0  0  0  0  0  0  0  0  0  0  0  0
    6.0914   -0.3593    0.8089 H   0  0  0  0  0  0  0  0  0  0  0  0
    5.5419    0.9116    1.9291 H   0  0  0  0  0  0  0  0  0  0  0  0
    2.9572   -0.6491    2.7847 H   0  0  0  0  0  0  0  0  0  0  0  0
    0.7206   -0.6644    1.8272 H   0  0  0  0  0  0  0  0  0  0  0  0
  1  2  2  0
  2  3  1  0
  2  4  1  0
  4  5  1  0
  4  6  1  0
  6  7  1  0
  7  8  1  0
  8  9  2  0
  9 10  1  0
 10 11  2  0
 10 12  1  0
 12 13  1  0
 13 14  2  0
 13 15  1  0
 15 16  2  0
 16 17  1  0
 16 18  1  0
 18 19  2  0
 14  8  1  0
 19 14  1  0
  3 20  1  0
  4 21  1  1
  5 22  1  0
  5 23  1  0
  6 24  1  0
  6 25  1  0
  7 26  1  0
  7 27  1  0
  9 28  1  0
 15 29  1  0
 17 30  1  0
 17 31  1  0
 17 32  1  0
 18 33  1  0
 19 34  1  0
M  END
>  <Name>  (161) 
UB41_McoAA

>  <canvasUID>  (161) 
173

>  <MW>  (161) 
261.2732

>  <AlogP>  (161) 
1.9725

>  <HBA>  (161) 
2

>  <HBD>  (161) 
0

>  <RB>  (161) 
4

>  <PSA>  (161) 
93.53

>  <Estate>  (161) 
52.835

>  <Polar>  (161) 
31.478

>  <Chirality>  (161) 
[(3, 'S')]

$$$$

     RDKit          3D

 20 19  0  0  0  0  0  0  0  0999 V2000
   -2.2346   -0.7266   -2.1625 O   0  0  0  0  0  0  0  0  0  0  0  0
   -1.5343   -0.1511   -1.3401 C   0  0  0  0  0  0  0  0  0  0  0  0
   -1.3858    1.1836   -1.4100 O   0  0  0  0  0  0  0  0  0  0  0  0
   -0.8527   -0.8113   -0.1337 C   0  0  1  0  0  0  0  0  0  0  0  0
   -0.6703   -2.2708   -0.4209 N   0  0  0  0  0  0  0  0  0  0  0  0
    0.5223   -0.1767    0.1880 C   0  0  2  0  0  0  0  0  0  0  0  0
    1.3842   -1.1728    0.7666 O   0  0  0  0  0  0  0  0  0  0  0  0
    0.4116    0.9882    1.1793 C   0  0  0  0  0  0  0  0  0  0  0  0
    1.7525    1.6720    1.4164 C   0  0  0  0  0  0  0  0  0  0  0  0
   -1.8964    1.4376   -2.2085 H   0  0  0  0  0  0  0  0  0  0  0  0
   -1.5401   -0.7218    0.7156 H   0  0  0  0  0  0  0  0  0  0  0  0
   -0.7264   -2.7706    0.4690 H   0  0  0  0  0  0  0  0  0  0  0  0
   -1.4884   -2.5821   -0.9566 H   0  0  0  0  0  0  0  0  0  0  0  0
    1.0110    0.1612   -0.7341 H   0  0  0  0  0  0  0  0  0  0  0  0
    1.2318   -1.9672    0.2128 H   0  0  0  0  0  0  0  0  0  0  0  0
    0.0447    0.6172    2.1442 H   0  0  0  0  0  0  0  0  0  0  0  0
   -0.3040    1.7355    0.8224 H   0  0  0  0  0  0  0  0  0  0  0  0
    2.1610    2.0662    0.4804 H   0  0  0  0  0  0  0  0  0  0  0  0
    1.6307    2.5086    2.1119 H   0  0  0  0  0  0  0  0  0  0  0  0
    2.4833    0.9810    1.8478 H   0  0  0  0  0  0  0  0  0  0  0  0
  1  2  2  0
  2  3  1  0
  2  4  1  0
  4  5  1  0
  4  6  1  0
  6  7  1  0
  6  8  1  0
  8  9  1  0
  3 10  1  0
  4 11  1  1
  5 12  1  0
  5 13  1  0
  6 14  1  6
  7 15  1  0
  8 16  1  0
  8 17  1  0
  9 18  1  0
  9 19  1  0
  9 20  1  0
M  END
>  <Name>  (162) 
UB42_HNV

>  <canvasUID>  (162) 
174

>  <MW>  (162) 
133.1457

>  <AlogP>  (162) 
-0.6943

>  <HBA>  (162) 
1

>  <HBD>  (162) 
1

>  <RB>  (162) 
3

>  <PSA>  (162) 
83.55

>  <Estate>  (162) 
31.833

>  <Polar>  (162) 
12.66

>  <Chirality>  (162) 
[(3, 'S'), (5, 'R')]

$$$$

     RDKit          3D

 43 43  0  0  0  0  0  0  0  0999 V2000
    7.3553   -2.1308    1.4500 O   0  0  0  0  0  0  0  0  0  0  0  0
    7.0232   -1.3244    0.5937 C   0  0  0  0  0  0  0  0  0  0  0  0
    7.9555   -0.6329   -0.0903 O   0  0  0  0  0  0  0  0  0  0  0  0
    5.5868   -1.0031    0.1550 C   0  0  1  0  0  0  0  0  0  0  0  0
    4.6562   -1.9808    0.7642 N   0  0  0  0  0  0  0  0  0  0  0  0
    5.2219    0.4358    0.5497 C   0  0  0  0  0  0  0  0  0  0  0  0
    4.0016    1.0214   -0.1739 C   0  0  0  0  0  0  0  0  0  0  0  0
    2.6617    0.4148    0.2414 C   0  0  0  0  0  0  0  0  0  0  0  0
    1.4932    1.1800   -0.3731 C   0  0  0  0  0  0  0  0  0  0  0  0
    0.2246    0.5983    0.0180 N   0  0  0  0  0  0  0  0  0  0  0  0
   -0.9409    1.2647   -0.2710 C   0  0  0  0  0  0  0  0  0  0  0  0
   -1.0021    2.3778   -0.7720 O   0  0  0  0  0  0  0  0  0  0  0  0
   -2.0318    0.5066    0.0827 N   0  0  0  0  0  0  0  0  0  0  0  0
   -3.3575    1.0803   -0.0261 C   0  0  0  0  0  0  0  0  0  0  0  0
   -4.4315    0.0061    0.0914 C   0  0  0  0  0  0  0  0  0  0  0  0
   -5.8315    0.6079   -0.0270 C   0  0  0  0  0  0  0  0  0  0  0  0
   -6.9029   -0.4380    0.0990 C   0  0  0  0  0  0  0  0  0  0  0  0
   -7.1914   -1.2995   -1.0867 C   0  0  0  0  0  0  0  0  0  0  0  0
   -7.1614   -0.9964    1.4306 N   0  0  0  0  0  0  0  0  0  0  0  0
   -8.0037   -0.1749    1.0322 N   0  0  0  0  0  0  0  0  0  0  0  0
    8.8074   -0.9450    0.2815 H   0  0  0  0  0  0  0  0  0  0  0  0
    5.5428   -1.1301   -0.9328 H   0  0  0  0  0  0  0  0  0  0  0  0
    4.7709   -1.9339    1.7801 H   0  0  0  0  0  0  0  0  0  0  0  0
    4.9832   -2.9200    0.5258 H   0  0  0  0  0  0  0  0  0  0  0  0
    6.0719    1.0933    0.3246 H   0  0  0  0  0  0  0  0  0  0  0  0
    5.0798    0.5085    1.6362 H   0  0  0  0  0  0  0  0  0  0  0  0
    4.1339    0.9205   -1.2580 H   0  0  0  0  0  0  0  0  0  0  0  0
    3.9778    2.0984    0.0370 H   0  0  0  0  0  0  0  0  0  0  0  0
    2.5695    0.4212    1.3343 H   0  0  0  0  0  0  0  0  0  0  0  0
    2.6015   -0.6299   -0.0809 H   0  0  0  0  0  0  0  0  0  0  0  0
    1.5460    1.1581   -1.4677 H   0  0  0  0  0  0  0  0  0  0  0  0
    1.5081    2.2296   -0.0576 H   0  0  0  0  0  0  0  0  0  0  0  0
    0.1448   -0.4032   -0.0868 H   0  0  0  0  0  0  0  0  0  0  0  0
   -1.8561   -0.0646    0.8976 H   0  0  0  0  0  0  0  0  0  0  0  0
   -3.4615    1.8268    0.7697 H   0  0  0  0  0  0  0  0  0  0  0  0
   -3.4398    1.6013   -0.9870 H   0  0  0  0  0  0  0  0  0  0  0  0
   -4.2793   -0.7511   -0.6876 H   0  0  0  0  0  0  0  0  0  0  0  0
   -4.3289   -0.5168    1.0506 H   0  0  0  0  0  0  0  0  0  0  0  0
   -5.9621    1.3752    0.7470 H   0  0  0  0  0  0  0  0  0  0  0  0
   -5.9376    1.1203   -0.9910 H   0  0  0  0  0  0  0  0  0  0  0  0
   -6.3229   -1.9161   -1.3376 H   0  0  0  0  0  0  0  0  0  0  0  0
   -8.0361   -1.9727   -0.9041 H   0  0  0  0  0  0  0  0  0  0  0  0
   -7.4386   -0.6828   -1.9567 H   0  0  0  0  0  0  0  0  0  0  0  0
  1  2  2  0
  2  3  1  0
  2  4  1  0
  4  5  1  0
  4  6  1  0
  6  7  1  0
  7  8  1  0
  8  9  1  0
  9 10  1  0
 10 11  1  0
 11 12  2  0
 11 13  1  0
 13 14  1  0
 14 15  1  0
 15 16  1  0
 16 17  1  0
 17 18  1  0
 17 19  1  0
 19 20  2  0
 20 17  1  0
  3 21  1  0
  4 22  1  6
  5 23  1  0
  5 24  1  0
  6 25  1  0
  6 26  1  0
  7 27  1  0
  7 28  1  0
  8 29  1  0
  8 30  1  0
  9 31  1  0
  9 32  1  0
 10 33  1  0
 13 34  1  0
 14 35  1  0
 14 36  1  0
 15 37  1  0
 15 38  1  0
 16 39  1  0
 16 40  1  0
 18 41  1  0
 18 42  1  0
 18 43  1  0
M  END
>  <Name>  (163) 
UB43_DiZPK

>  <canvasUID>  (163) 
175

>  <MW>  (163) 
285.3427

>  <AlogP>  (163) 
-0.016

>  <HBA>  (163) 
3

>  <HBD>  (163) 
2

>  <RB>  (163) 
10

>  <PSA>  (163) 
129.17

>  <Estate>  (163) 
54.417

>  <Polar>  (163) 
28.942

>  <Chirality>  (163) 
[(3, 'S')]

$$$$

     RDKit          3D

 42 42  0  0  0  0  0  0  0  0999 V2000
    4.9418   -0.9574   -3.5325 O   0  0  0  0  0  0  0  0  0  0  0  0
    4.8962   -0.3214   -2.4889 C   0  0  0  0  0  0  0  0  0  0  0  0
    5.8289   -0.5331   -1.5388 O   0  0  0  0  0  0  0  0  0  0  0  0
    3.9154    0.8145   -2.1563 C   0  0  1  0  0  0  0  0  0  0  0  0
    2.7225    0.7232   -3.0220 N   0  0  0  0  0  0  0  0  0  0  0  0
    3.5004    0.8549   -0.6775 C   0  0  0  0  0  0  0  0  0  0  0  0
    2.6840   -0.3618   -0.2209 C   0  0  0  0  0  0  0  0  0  0  0  0
    2.3517   -0.2776    1.2730 C   0  0  0  0  0  0  0  0  0  0  0  0
    1.4882   -1.4492    1.7428 C   0  0  0  0  0  0  0  0  0  0  0  0
    0.1727   -1.4335    1.1460 N   0  0  0  0  0  0  0  0  0  0  0  0
   -0.8305   -0.6373    1.6060 C   0  0  0  0  0  0  0  0  0  0  0  0
   -0.8020    0.0215    2.6332 O   0  0  0  0  0  0  0  0  0  0  0  0
   -1.8584   -0.6765    0.7247 O   0  0  0  0  0  0  0  0  0  0  0  0
   -2.9817    0.1480    1.0544 C   0  0  1  0  0  0  0  0  0  0  0  0
   -3.8432    0.3623   -0.2060 C   0  0  2  0  0  0  0  0  0  0  0  0
   -3.5845    1.6892   -0.7912 N   0  0  0  0  0  0  0  0  0  0  0  0
   -2.5299    1.7928   -1.4455 N   0  0  0  0  0  4  0  0  0  0  0  0
   -1.5644    1.8902   -2.0429 N   0  0  0  0  0  2  0  0  0  0  0  0
   -3.9214   -0.5437    2.0345 C   0  0  0  0  0  0  0  0  0  0  0  0
   -5.2405    0.1646    1.7878 C   0  0  0  0  0  0  0  0  0  0  0  0
   -5.3015    0.2965    0.2700 C   0  0  0  0  0  0  0  0  0  0  0  0
    6.3813   -1.2497   -1.9163 H   0  0  0  0  0  0  0  0  0  0  0  0
    4.4419    1.7450   -2.4020 H   0  0  0  0  0  0  0  0  0  0  0  0
    3.0290    0.5937   -3.9885 H   0  0  0  0  0  0  0  0  0  0  0  0
    2.2060    1.6005   -2.9889 H   0  0  0  0  0  0  0  0  0  0  0  0
    4.3941    0.9455   -0.0475 H   0  0  0  0  0  0  0  0  0  0  0  0
    2.9096    1.7635   -0.5000 H   0  0  0  0  0  0  0  0  0  0  0  0
    3.2427   -1.2849   -0.4140 H   0  0  0  0  0  0  0  0  0  0  0  0
    1.7558   -0.4177   -0.8003 H   0  0  0  0  0  0  0  0  0  0  0  0
    1.8414    0.6700    1.4841 H   0  0  0  0  0  0  0  0  0  0  0  0
    3.2852   -0.2760    1.8485 H   0  0  0  0  0  0  0  0  0  0  0  0
    1.3776   -1.4058    2.8320 H   0  0  0  0  0  0  0  0  0  0  0  0
    1.9556   -2.4053    1.4857 H   0  0  0  0  0  0  0  0  0  0  0  0
    0.0363   -1.8151    0.2202 H   0  0  0  0  0  0  0  0  0  0  0  0
   -2.6491    1.1173    1.4513 H   0  0  0  0  0  0  0  0  0  0  0  0
   -3.6660   -0.4155   -0.9608 H   0  0  0  0  0  0  0  0  0  0  0  0
   -3.5848   -0.4443    3.0708 H   0  0  0  0  0  0  0  0  0  0  0  0
   -3.9983   -1.6154    1.8147 H   0  0  0  0  0  0  0  0  0  0  0  0
   -6.0937   -0.3888    2.1904 H   0  0  0  0  0  0  0  0  0  0  0  0
   -5.2289    1.1587    2.2504 H   0  0  0  0  0  0  0  0  0  0  0  0
   -5.9045    1.1579   -0.0354 H   0  0  0  0  0  0  0  0  0  0  0  0
   -5.7750   -0.5998   -0.1494 H   0  0  0  0  0  0  0  0  0  0  0  0
  1  2  2  0
  2  3  1  0
  2  4  1  0
  4  5  1  0
  4  6  1  0
  6  7  1  0
  7  8  1  0
  8  9  1  0
  9 10  1  0
 10 11  1  0
 11 12  2  0
 11 13  1  0
 13 14  1  0
 14 15  1  0
 15 16  1  0
 16 17  2  0
 17 18  2  0
 14 19  1  0
 19 20  1  0
 20 21  1  0
 21 15  1  0
  3 22  1  0
  4 23  1  6
  5 24  1  0
  5 25  1  0
  6 26  1  0
  6 27  1  0
  7 28  1  0
  7 29  1  0
  8 30  1  0
  8 31  1  0
  9 32  1  0
  9 33  1  0
 10 34  1  0
 14 35  1  1
 15 36  1  6
 19 37  1  0
 19 38  1  0
 20 39  1  0
 20 40  1  0
 21 41  1  0
 21 42  1  0
M  CHG  2  17   1  18  -1
M  END
>  <Name>  (164) 
UB44_ACPK

>  <canvasUID>  (164) 
176

>  <MW>  (164) 
299.3262

>  <AlogP>  (164) 
-0.4758

>  <HBA>  (164) 
2

>  <HBD>  (164) 
1

>  <RB>  (164) 
9

>  <PSA>  (164) 
114.01

>  <Estate>  (164) 
51.833

>  <Polar>  (164) 
28.739

>  <Chirality>  (164) 
[(3, 'S'), (13, 'R'), (14, 'R')]

$$$$

     RDKit          3D

 23 23  0  0  0  0  0  0  0  0999 V2000
    3.5656    0.8248    1.2451 O   0  0  0  0  0  0  0  0  0  0  0  0
    3.2609    0.6252    0.0817 C   0  0  0  0  0  0  0  0  0  0  0  0
    4.1967    0.7171   -0.8949 O   0  0  0  0  0  0  0  0  0  0  0  0
    1.8745    0.3188   -0.4872 C   0  0  1  0  0  0  0  0  0  0  0  0
    1.9923   -0.4144   -1.7133 O   0  0  0  0  0  0  0  0  0  0  0  0
    1.0501   -0.4935    0.5175 C   0  0  0  0  0  0  0  0  0  0  0  0
   -0.4393   -0.3741    0.2725 C   0  0  0  0  0  0  0  0  0  0  0  0
   -1.2338    0.4356    1.0979 C   0  0  0  0  0  0  0  0  0  0  0  0
   -2.6069    0.5527    0.8677 C   0  0  0  0  0  0  0  0  0  0  0  0
   -3.1850   -0.1389   -0.1917 C   0  0  0  0  0  0  0  0  0  0  0  0
   -4.5208   -0.0523   -0.4519 O   0  0  0  0  0  0  0  0  0  0  0  0
   -2.4138   -0.9423   -1.0217 C   0  0  0  0  0  0  0  0  0  0  0  0
   -1.0427   -1.0602   -0.7908 C   0  0  0  0  0  0  0  0  0  0  0  0
    5.0251    0.9174   -0.4078 H   0  0  0  0  0  0  0  0  0  0  0  0
    1.4005    1.2809   -0.7136 H   0  0  0  0  0  0  0  0  0  0  0  0
    2.7325    0.0015   -2.1976 H   0  0  0  0  0  0  0  0  0  0  0  0
    1.3255   -1.5553    0.4698 H   0  0  0  0  0  0  0  0  0  0  0  0
    1.2566   -0.1719    1.5458 H   0  0  0  0  0  0  0  0  0  0  0  0
   -0.7890    0.9789    1.9288 H   0  0  0  0  0  0  0  0  0  0  0  0
   -3.2024    1.1825    1.5205 H   0  0  0  0  0  0  0  0  0  0  0  0
   -4.9264    0.5298    0.2108 H   0  0  0  0  0  0  0  0  0  0  0  0
   -2.8762   -1.4751   -1.8474 H   0  0  0  0  0  0  0  0  0  0  0  0
   -0.4439   -1.6870   -1.4492 H   0  0  0  0  0  0  0  0  0  0  0  0
  1  2  2  0
  2  3  1  0
  2  4  1  0
  4  5  1  0
  4  6  1  0
  6  7  1  0
  7  8  2  0
  8  9  1  0
  9 10  2  0
 10 11  1  0
 10 12  1  0
 12 13  2  0
 13  7  1  0
  3 14  1  0
  4 15  1  6
  5 16  1  0
  6 17  1  0
  6 18  1  0
  8 19  1  0
  9 20  1  0
 11 21  1  0
 12 22  1  0
 13 23  1  0
M  END
>  <Name>  (165) 
UB45_PLA

>  <canvasUID>  (165) 
177

>  <MW>  (165) 
182.1733

>  <AlogP>  (165) 
0.8708

>  <HBA>  (165) 
2

>  <HBD>  (165) 
2

>  <RB>  (165) 
3

>  <PSA>  (165) 
77.76

>  <Estate>  (165) 
41.834

>  <Polar>  (165) 
21.2

>  <Chirality>  (165) 
[(3, 'S')]

$$$$

     RDKit          3D

 27 27  0  0  0  0  0  0  0  0999 V2000
   -4.5190    1.5609    0.2907 O   0  0  0  0  0  0  0  0  0  0  0  0
   -3.6125    0.5915    0.9372 B   0  0  0  0  0  0  0  0  0  0  0  0
   -4.2396   -0.5775    1.5582 O   0  0  0  0  0  0  0  0  0  0  0  0
   -2.1732    0.4609    0.3124 C   0  0  0  0  0  0  0  0  0  0  0  0
   -1.2138    1.4333    0.5334 C   0  0  0  0  0  0  0  0  0  0  0  0
    0.0377    1.2833   -0.0318 C   0  0  0  0  0  0  0  0  0  0  0  0
    0.3485    0.1902   -0.8074 C   0  0  0  0  0  0  0  0  0  0  0  0
   -0.6135   -0.7705   -1.0205 C   0  0  0  0  0  0  0  0  0  0  0  0
   -1.8870   -0.6467   -0.4627 C   0  0  0  0  0  0  0  0  0  0  0  0
    1.6776    0.0209   -1.4113 C   0  0  0  0  0  0  0  0  0  0  0  0
    2.6234   -0.7437   -0.5111 C   0  0  2  0  0  0  0  0  0  0  0  0
    2.1424   -2.0623   -0.2041 N   0  0  0  0  0  0  0  0  0  0  0  0
    2.8446    0.0205    0.7400 C   0  0  0  0  0  0  0  0  0  0  0  0
    2.6080   -0.4339    1.8796 O   0  0  0  0  0  0  0  0  0  0  0  0
    3.3426    1.3107    0.6300 O   0  0  0  0  0  0  0  0  0  0  0  0
   -4.8859    2.1371    1.0033 H   0  0  0  0  0  0  0  0  0  0  0  0
   -4.4461   -1.2430    0.8378 H   0  0  0  0  0  0  0  0  0  0  0  0
   -1.4984    2.2732    1.1469 H   0  0  0  0  0  0  0  0  0  0  0  0
    0.7534    2.0719    0.1694 H   0  0  0  0  0  0  0  0  0  0  0  0
   -0.3591   -1.6260   -1.6318 H   0  0  0  0  0  0  0  0  0  0  0  0
   -2.6201   -1.4088   -0.6431 H   0  0  0  0  0  0  0  0  0  0  0  0
    1.6258   -0.5756   -2.3690 H   0  0  0  0  0  0  0  0  0  0  0  0
    2.1429    0.9835   -1.7049 H   0  0  0  0  0  0  0  0  0  0  0  0
    3.6189   -0.8627   -0.9857 H   0  0  0  0  0  0  0  0  0  0  0  0
    2.4445   -2.4277    0.7051 H   0  0  0  0  0  0  0  0  0  0  0  0
    2.1248   -2.7117   -0.9861 H   0  0  0  0  0  0  0  0  0  0  0  0
    3.7333    1.7522    1.4515 H   0  0  0  0  0  0  0  0  0  0  0  0
  1  2  1  0
  2  3  1  0
  2  4  1  0
  4  5  2  0
  5  6  1  0
  6  7  2  0
  7  8  1  0
  8  9  2  0
  7 10  1  0
 10 11  1  0
 11 12  1  0
 11 13  1  0
 13 14  2  0
 13 15  1  0
  9  4  1  0
  1 16  1  0
  3 17  1  0
  5 18  1  0
  6 19  1  0
  8 20  1  0
  9 21  1  0
 10 22  1  0
 10 23  1  0
 11 24  1  6
 12 25  1  0
 12 26  1  0
 15 27  1  0
M  END
>  <Name>  (166) 
UB46_pBoF

>  <canvasUID>  (166) 
178

>  <MW>  (166) 
209.0069

>  <AlogP>  (166) 
0.8024

>  <HBA>  (166) 
2

>  <HBD>  (166) 
2

>  <RB>  (166) 
4

>  <PSA>  (166) 
103.78

>  <Estate>  (166) 
47.167

>  <Polar>  (166) 
22.938

>  <Chirality>  (166) 
[(10, 'S')]

$$$$

     RDKit          3D

 25 25  0  0  0  0  0  0  0  0999 V2000
    3.6060    1.4353    0.9041 O   0  0  0  0  0  0  0  0  0  0  0  0
    3.1553    0.3859    0.4744 C   0  0  0  0  0  0  0  0  0  0  0  0
    3.8129   -0.7759    0.7041 O   0  0  0  0  0  0  0  0  0  0  0  0
    1.8233    0.1944   -0.2577 C   0  0  1  0  0  0  0  0  0  0  0  0
    1.9524   -0.8941   -1.2578 N   0  0  0  0  0  0  0  0  0  0  0  0
    0.7416   -0.0696    0.8103 C   0  0  0  0  0  0  0  0  0  0  0  0
   -0.6771   -0.1554    0.2826 C   0  0  0  0  0  0  0  0  0  0  0  0
   -1.5544    0.9429    0.1780 C   0  0  0  0  0  0  0  0  0  0  0  0
   -1.1553    2.2837    0.5917 N   0  0  0  0  0  4  0  0  0  0  0  0
   -1.9231    2.8923    1.3495 O   0  0  0  0  0  1  0  0  0  0  0  0
   -0.0895    2.7257    0.1465 O   0  0  0  0  0  0  0  0  0  0  0  0
   -2.8659    0.7951   -0.3025 C   0  0  0  0  0  0  0  0  0  0  0  0
   -3.3196   -0.4625   -0.6923 C   0  0  0  0  0  0  0  0  0  0  0  0
   -2.4735   -1.5644   -0.5933 C   0  0  0  0  0  0  0  0  0  0  0  0
   -1.1708   -1.4146   -0.1076 C   0  0  0  0  0  0  0  0  0  0  0  0
    4.6373   -0.4838    1.1470 H   0  0  0  0  0  0  0  0  0  0  0  0
    1.6223    1.1129   -0.8166 H   0  0  0  0  0  0  0  0  0  0  0  0
    2.3155   -1.7231   -0.7842 H   0  0  0  0  0  0  0  0  0  0  0  0
    1.0384   -1.1285   -1.6370 H   0  0  0  0  0  0  0  0  0  0  0  0
    0.9730   -1.0049    1.3410 H   0  0  0  0  0  0  0  0  0  0  0  0
    0.7930    0.6934    1.5980 H   0  0  0  0  0  0  0  0  0  0  0  0
   -3.5355    1.6507   -0.3710 H   0  0  0  0  0  0  0  0  0  0  0  0
   -4.3338   -0.5857   -1.0654 H   0  0  0  0  0  0  0  0  0  0  0  0
   -2.8309   -2.5489   -0.8892 H   0  0  0  0  0  0  0  0  0  0  0  0
   -0.5416   -2.3007   -0.0292 H   0  0  0  0  0  0  0  0  0  0  0  0
  1  2  2  0
  2  3  1  0
  2  4  1  0
  4  5  1  0
  4  6  1  0
  6  7  1  0
  7  8  2  0
  8  9  1  0
  9 10  1  0
  9 11  2  0
  8 12  1  0
 12 13  2  0
 13 14  1  0
 14 15  2  0
 15  7  1  0
  3 16  1  0
  4 17  1  6
  5 18  1  0
  5 19  1  0
  6 20  1  0
  6 21  1  0
 12 22  1  0
 13 23  1  0
 14 24  1  0
 15 25  1  0
M  CHG  2   9   1  10  -1
M  END
>  <Name>  (167) 
UB47_oNiF

>  <canvasUID>  (167) 
179

>  <MW>  (167) 
210.1867

>  <AlogP>  (167) 
0.743

>  <HBA>  (167) 
0

>  <HBD>  (167) 
0

>  <RB>  (167) 
4

>  <PSA>  (167) 
106.46

>  <Estate>  (167) 
49.834

>  <Polar>  (167) 
22.823

>  <Chirality>  (167) 
[(3, 'S')]

$$$$

     RDKit          3D

 28 29  0  0  0  0  0  0  0  0999 V2000
   -4.5662   -0.7272   -0.8016 O   0  0  0  0  0  0  0  0  0  0  0  0
   -4.0897    0.3460   -0.4692 C   0  0  0  0  0  0  0  0  0  0  0  0
   -4.8997    1.4182   -0.3068 O   0  0  0  0  0  0  0  0  0  0  0  0
   -2.6034    0.6633   -0.2409 C   0  0  1  0  0  0  0  0  0  0  0  0
   -2.4524    1.9232    0.5403 N   0  0  0  0  0  0  0  0  0  0  0  0
   -1.9195   -0.5225    0.4631 C   0  0  0  0  0  0  0  0  0  0  0  0
   -0.4160   -0.5328    0.2937 C   0  0  0  0  0  0  0  0  0  0  0  0
    0.4006    0.2672    1.1021 C   0  0  0  0  0  0  0  0  0  0  0  0
    1.7895    0.2696    0.9384 C   0  0  0  0  0  0  0  0  0  0  0  0
    2.3789   -0.5351   -0.0448 C   0  0  0  0  0  0  0  0  0  0  0  0
    1.5662   -1.3369   -0.8589 C   0  0  0  0  0  0  0  0  0  0  0  0
    0.1790   -1.3320   -0.6902 C   0  0  0  0  0  0  0  0  0  0  0  0
    3.7814   -0.5489   -0.2307 N   0  0  0  0  0  0  0  0  0  0  0  0
    4.7589    0.1461    0.4367 C   0  0  0  0  0  0  0  0  0  0  0  0
    5.9342   -0.1677   -0.0583 N   0  0  0  0  0  0  0  0  0  0  0  0
    5.6866   -1.0749   -1.0536 N   0  0  0  0  0  0  0  0  0  0  0  0
    4.3879   -1.3142   -1.1685 N   0  0  0  0  0  0  0  0  0  0  0  0
   -5.7932    1.0710   -0.5153 H   0  0  0  0  0  0  0  0  0  0  0  0
   -2.1673    0.8294   -1.2332 H   0  0  0  0  0  0  0  0  0  0  0  0
   -2.9216    1.8014    1.4387 H   0  0  0  0  0  0  0  0  0  0  0  0
   -3.0152    2.6346    0.0644 H   0  0  0  0  0  0  0  0  0  0  0  0
   -2.3131   -1.4741    0.0819 H   0  0  0  0  0  0  0  0  0  0  0  0
   -2.1644   -0.5311    1.5342 H   0  0  0  0  0  0  0  0  0  0  0  0
   -0.0464    0.9069    1.8616 H   0  0  0  0  0  0  0  0  0  0  0  0
    2.3698    0.9141    1.5918 H   0  0  0  0  0  0  0  0  0  0  0  0
    1.9921   -1.9729   -1.6336 H   0  0  0  0  0  0  0  0  0  0  0  0
   -0.4328   -1.9602   -1.3352 H   0  0  0  0  0  0  0  0  0  0  0  0
    4.5758    0.8395    1.2411 H   0  0  0  0  0  0  0  0  0  0  0  0
  1  2  2  0
  2  3  1  0
  2  4  1  0
  4  5  1  0
  4  6  1  0
  6  7  1  0
  7  8  2  0
  8  9  1  0
  9 10  2  0
 10 11  1  0
 11 12  2  0
 10 13  1  0
 13 14  1  0
 14 15  2  0
 15 16  1  0
 16 17  2  0
 12  7  1  0
 17 13  1  0
  3 18  1  0
  4 19  1  6
  5 20  1  0
  5 21  1  0
  6 22  1  0
  6 23  1  0
  8 24  1  0
  9 25  1  0
 11 26  1  0
 12 27  1  0
 14 28  1  0
M  END
>  <Name>  (168) 
UB48_pTpa

>  <canvasUID>  (168) 
180

>  <MW>  (168) 
233.2266

>  <AlogP>  (168) 
0.3727

>  <HBA>  (168) 
3

>  <HBD>  (168) 
0

>  <RB>  (168) 
4

>  <PSA>  (168) 
106.92

>  <Estate>  (168) 
46.834

>  <Polar>  (168) 
27.293

>  <Chirality>  (168) 
[(3, 'S')]

$$$$

     RDKit          3D

 26 26  0  0  0  0  0  0  0  0999 V2000
   -2.6562    0.8705    1.9489 O   0  0  0  0  0  0  0  0  0  0  0  0
   -2.7329    0.6832    0.7448 C   0  0  0  0  0  0  0  0  0  0  0  0
   -3.0351    1.7124   -0.0797 O   0  0  0  0  0  0  0  0  0  0  0  0
   -2.5646   -0.6578    0.0186 C   0  0  1  0  0  0  0  0  0  0  0  0
   -2.4992   -0.4793   -1.4569 N   0  0  0  0  0  0  0  0  0  0  0  0
   -1.3641   -1.4460    0.5747 C   0  0  0  0  0  0  0  0  0  0  0  0
   -0.0054   -0.8284    0.3208 C   0  0  0  0  0  0  0  0  0  0  0  0
    0.7143   -1.1453   -0.8405 C   0  0  0  0  0  0  0  0  0  0  0  0
    1.9647   -0.5697   -1.0873 C   0  0  0  0  0  0  0  0  0  0  0  0
    0.5561    0.0701    1.2360 C   0  0  0  0  0  0  0  0  0  0  0  0
    1.8021    0.6391    0.9825 C   0  0  0  0  0  0  0  0  0  0  0  0
    2.3171    1.4917    1.8803 F   0  0  0  0  0  0  0  0  0  0  0  0
    2.5159    0.3407   -0.1796 C   0  0  0  0  0  0  0  0  0  0  0  0
    3.8672    0.9428   -0.4130 C   0  0  0  0  0  0  0  0  0  0  0  0
   -3.1115    2.4814    0.5240 H   0  0  0  0  0  0  0  0  0  0  0  0
   -3.4802   -1.2249    0.2253 H   0  0  0  0  0  0  0  0  0  0  0  0
   -3.2608    0.1555   -1.7136 H   0  0  0  0  0  0  0  0  0  0  0  0
   -1.6581    0.0636   -1.6667 H   0  0  0  0  0  0  0  0  0  0  0  0
   -1.3716   -2.4598    0.1516 H   0  0  0  0  0  0  0  0  0  0  0  0
   -1.4854   -1.5870    1.6572 H   0  0  0  0  0  0  0  0  0  0  0  0
    0.3017   -1.8472   -1.5643 H   0  0  0  0  0  0  0  0  0  0  0  0
    2.5035   -0.8391   -1.9932 H   0  0  0  0  0  0  0  0  0  0  0  0
    0.0400    0.3341    2.1556 H   0  0  0  0  0  0  0  0  0  0  0  0
    4.6232    0.4037    0.1663 H   0  0  0  0  0  0  0  0  0  0  0  0
    3.8769    1.9979   -0.1199 H   0  0  0  0  0  0  0  0  0  0  0  0
    4.1424    0.8980   -1.4720 H   0  0  0  0  0  0  0  0  0  0  0  0
  1  2  2  0
  2  3  1  0
  2  4  1  0
  4  5  1  0
  4  6  1  0
  6  7  1  0
  7  8  2  0
  8  9  1  0
  7 10  1  0
 10 11  2  0
 11 12  1  0
 11 13  1  0
 13 14  1  0
 13  9  2  0
  3 15  1  0
  4 16  1  6
  5 17  1  0
  5 18  1  0
  6 19  1  0
  6 20  1  0
  8 21  1  0
  9 22  1  0
 10 23  1  0
 14 24  1  0
 14 25  1  0
 14 26  1  0
M  END
>  <Name>  (169) 
UB49_pmmfF

>  <canvasUID>  (169) 
181

>  <MW>  (169) 
197.2062

>  <AlogP>  (169) 
1.5403

>  <HBA>  (169) 
0

>  <HBD>  (169) 
0

>  <RB>  (169) 
3

>  <PSA>  (169) 
63.32

>  <Estate>  (169) 
43.501

>  <Polar>  (169) 
23.021

>  <Chirality>  (169) 
[(3, 'S')]

$$$$

     RDKit          3D

 29 28  0  0  0  0  0  0  0  0999 V2000
    5.6208    0.5781    1.2604 F   0  0  0  0  0  0  0  0  0  0  0  0
    4.3603    1.0778    1.1385 C   0  0  0  0  0  0  0  0  0  0  0  0
    4.4050    1.9675    0.1009 F   0  0  0  0  0  0  0  0  0  0  0  0
    4.1157    1.8100    2.2582 F   0  0  0  0  0  0  0  0  0  0  0  0
    3.3081   -0.0277    0.8965 C   0  0  0  0  0  0  0  0  0  0  0  0
    2.9776   -0.8536    1.7490 O   0  0  0  0  0  0  0  0  0  0  0  0
    2.7677   -0.0420   -0.3890 N   0  0  0  0  0  0  0  0  0  0  0  0
    1.6988   -0.9455   -0.7592 C   0  0  0  0  0  0  0  0  0  0  0  0
    0.3316   -0.3546   -0.4170 C   0  0  0  0  0  0  0  0  0  0  0  0
   -0.7943   -1.3388   -0.7232 C   0  0  0  0  0  0  0  0  0  0  0  0
   -2.2094   -0.7476   -0.6397 C   0  0  0  0  0  0  0  0  0  0  0  0
   -2.5840   -0.1601    0.7318 C   0  0  2  0  0  0  0  0  0  0  0  0
   -4.0342   -0.3347    0.9878 N   0  0  0  0  0  0  0  0  0  0  0  0
   -2.2538    1.3414    0.7831 C   0  0  0  0  0  0  0  0  0  0  0  0
   -1.2495    1.8561    1.2479 O   0  0  0  0  0  0  0  0  0  0  0  0
   -3.1931    2.1136    0.1849 O   0  0  0  0  0  0  0  0  0  0  0  0
    2.9858    0.7378   -1.0030 H   0  0  0  0  0  0  0  0  0  0  0  0
    1.7825   -1.1189   -1.8371 H   0  0  0  0  0  0  0  0  0  0  0  0
    1.8433   -1.9027   -0.2463 H   0  0  0  0  0  0  0  0  0  0  0  0
    0.1868    0.5741   -0.9822 H   0  0  0  0  0  0  0  0  0  0  0  0
    0.3124   -0.0941    0.6467 H   0  0  0  0  0  0  0  0  0  0  0  0
   -0.7215   -2.1939   -0.0394 H   0  0  0  0  0  0  0  0  0  0  0  0
   -0.6585   -1.7393   -1.7359 H   0  0  0  0  0  0  0  0  0  0  0  0
   -2.3291    0.0073   -1.4275 H   0  0  0  0  0  0  0  0  0  0  0  0
   -2.8963   -1.5653   -0.8962 H   0  0  0  0  0  0  0  0  0  0  0  0
   -2.0484   -0.6610    1.5447 H   0  0  0  0  0  0  0  0  0  0  0  0
   -4.3145   -1.2880    0.7683 H   0  0  0  0  0  0  0  0  0  0  0  0
   -4.5427    0.2788    0.3462 H   0  0  0  0  0  0  0  0  0  0  0  0
   -2.8669    3.0253    0.3345 H   0  0  0  0  0  0  0  0  0  0  0  0
  1  2  1  0
  2  3  1  0
  2  4  1  0
  2  5  1  0
  5  6  2  0
  5  7  1  0
  7  8  1  0
  8  9  1  0
  9 10  1  0
 10 11  1  0
 11 12  1  0
 12 13  1  0
 12 14  1  0
 14 15  2  0
 14 16  1  0
  7 17  1  0
  8 18  1  0
  8 19  1  0
  9 20  1  0
  9 21  1  0
 10 22  1  0
 10 23  1  0
 11 24  1  0
 11 25  1  0
 12 26  1  1
 13 27  1  0
 13 28  1  0
 16 29  1  0
M  END
>  <Name>  (170) 
UB50_CF3COK

>  <canvasUID>  (170) 
182

>  <MW>  (170) 
242.1956

>  <AlogP>  (170) 
0.3231

>  <HBA>  (170) 
1

>  <HBD>  (170) 
1

>  <RB>  (170) 
7

>  <PSA>  (170) 
92.42

>  <Estate>  (170) 
63.417

>  <Polar>  (170) 
18.692

>  <Chirality>  (170) 
[(11, 'S')]

$$$$

     RDKit          3D

 29 30  0  0  0  0  0  0  0  0999 V2000
   -4.5129    1.1972   -0.8241 O   0  0  0  0  0  0  0  0  0  0  0  0
   -4.1451    0.4790    0.0915 C   0  0  0  0  0  0  0  0  0  0  0  0
   -5.0306    0.0900    1.0410 O   0  0  0  0  0  0  0  0  0  0  0  0
   -2.7215   -0.0158    0.3734 C   0  0  1  0  0  0  0  0  0  0  0  0
   -2.7636   -1.4181    0.8578 N   0  0  0  0  0  0  0  0  0  0  0  0
   -1.8533    0.1190   -0.8889 C   0  0  0  0  0  0  0  0  0  0  0  0
   -0.3825   -0.1189   -0.6268 C   0  0  0  0  0  0  0  0  0  0  0  0
    0.4216    0.9052   -0.1047 C   0  0  0  0  0  0  0  0  0  0  0  0
    0.1902   -1.3691   -0.8798 C   0  0  0  0  0  0  0  0  0  0  0  0
    1.5432   -1.5940   -0.6175 C   0  0  0  0  0  0  0  0  0  0  0  0
    2.3526   -0.5739   -0.0955 C   0  0  0  0  0  0  0  0  0  0  0  0
    1.7847    0.6937    0.1642 C   0  0  0  0  0  0  0  0  0  0  0  0
    3.7146   -0.7855    0.1741 C   0  0  0  0  0  0  0  0  0  0  0  0
    4.5068    0.2398    0.6930 C   0  0  0  0  0  0  0  0  0  0  0  0
    3.9481    1.4886    0.9484 C   0  0  0  0  0  0  0  0  0  0  0  0
    2.5959    1.7148    0.6858 C   0  0  0  0  0  0  0  0  0  0  0  0
   -5.8820    0.4598    0.7271 H   0  0  0  0  0  0  0  0  0  0  0  0
   -2.3257    0.6201    1.1749 H   0  0  0  0  0  0  0  0  0  0  0  0
   -3.4210   -1.4543    1.6403 H   0  0  0  0  0  0  0  0  0  0  0  0
   -1.8468   -1.6562    1.2367 H   0  0  0  0  0  0  0  0  0  0  0  0
   -2.2084   -0.5651   -1.6718 H   0  0  0  0  0  0  0  0  0  0  0  0
   -1.9628    1.1237   -1.3194 H   0  0  0  0  0  0  0  0  0  0  0  0
   -0.0182    1.8814    0.0916 H   0  0  0  0  0  0  0  0  0  0  0  0
   -0.4165   -2.1796   -1.2796 H   0  0  0  0  0  0  0  0  0  0  0  0
    1.9615   -2.5764   -0.8248 H   0  0  0  0  0  0  0  0  0  0  0  0
    4.1691   -1.7543   -0.0205 H   0  0  0  0  0  0  0  0  0  0  0  0
    5.5597    0.0624    0.8959 H   0  0  0  0  0  0  0  0  0  0  0  0
    4.5642    2.2883    1.3510 H   0  0  0  0  0  0  0  0  0  0  0  0
    2.1787    2.6980    0.8906 H   0  0  0  0  0  0  0  0  0  0  0  0
  1  2  2  0
  2  3  1  0
  2  4  1  0
  4  5  1  0
  4  6  1  0
  6  7  1  0
  7  8  2  0
  7  9  1  0
  9 10  2  0
 10 11  1  0
 11 12  2  0
 11 13  1  0
 13 14  2  0
 14 15  1  0
 15 16  2  0
 12  8  1  0
 16 12  1  0
  3 17  1  0
  4 18  1  1
  5 19  1  0
  5 20  1  0
  6 21  1  0
  6 22  1  0
  8 23  1  0
  9 24  1  0
 10 25  1  0
 13 26  1  0
 14 27  1  0
 15 28  1  0
 16 29  1  0
M  END
>  <Name>  (171) 
UB51_NapA

>  <canvasUID>  (171) 
183

>  <MW>  (171) 
215.2478

>  <AlogP>  (171) 
1.757

>  <HBA>  (171) 
0

>  <HBD>  (171) 
0

>  <RB>  (171) 
3

>  <PSA>  (171) 
63.32

>  <Estate>  (171) 
41.501

>  <Polar>  (171) 
29.635

>  <Chirality>  (171) 
[(3, 'S')]

$$$$

     RDKit          3D

 40 40  0  0  0  0  0  0  0  0999 V2000
    6.3896   -0.5598    1.8805 O   0  0  0  0  0  0  0  0  0  0  0  0
    5.2380   -0.2687    1.5936 C   0  0  0  0  0  0  0  0  0  0  0  0
    4.4335    0.3136    2.5032 O   0  0  0  0  0  0  0  0  0  0  0  0
    4.5585   -0.4849    0.2362 C   0  0  1  0  0  0  0  0  0  0  0  0
    5.5946   -0.5388   -0.8254 N   0  0  0  0  0  0  0  0  0  0  0  0
    3.7706   -1.8006    0.2070 C   0  0  0  0  0  0  0  0  0  0  0  0
    2.5323   -1.8471    1.1121 C   0  0  0  0  0  0  0  0  0  0  0  0
    1.4738   -0.7728    0.8482 C   0  0  0  0  0  0  0  0  0  0  0  0
    0.9027   -0.8173   -0.5683 C   0  0  0  0  0  0  0  0  0  0  0  0
   -0.1490    0.1562   -0.7448 N   0  0  0  0  0  0  0  0  0  0  0  0
   -1.4387   -0.0707   -0.3742 C   0  0  0  0  0  0  0  0  0  0  0  0
   -1.8691   -1.1136    0.0927 O   0  0  0  0  0  0  0  0  0  0  0  0
   -2.1632    1.0518   -0.6003 O   0  0  0  0  0  0  0  0  0  0  0  0
   -3.5475    0.9599   -0.2634 C   0  0  0  0  0  0  0  0  0  0  0  0
   -4.3586    0.2419   -1.3364 C   0  0  0  0  0  0  0  0  0  0  0  0
   -5.7828    0.7522   -1.1458 C   0  0  0  0  0  0  0  0  0  0  0  0
   -5.6620    2.0836   -0.4026 C   0  0  0  0  0  0  0  0  0  0  0  0
   -4.1695    2.3508   -0.2718 C   0  0  0  0  0  0  0  0  0  0  0  0
    4.9924    0.3890    3.3054 H   0  0  0  0  0  0  0  0  0  0  0  0
    3.9228    0.3777    0.0156 H   0  0  0  0  0  0  0  0  0  0  0  0
    6.2619   -1.2747   -0.5761 H   0  0  0  0  0  0  0  0  0  0  0  0
    6.1455    0.3206   -0.7836 H   0  0  0  0  0  0  0  0  0  0  0  0
    3.4589   -2.0207   -0.8221 H   0  0  0  0  0  0  0  0  0  0  0  0
    4.4300   -2.6274    0.5053 H   0  0  0  0  0  0  0  0  0  0  0  0
    2.0649   -2.8337    0.9989 H   0  0  0  0  0  0  0  0  0  0  0  0
    2.8434   -1.7842    2.1613 H   0  0  0  0  0  0  0  0  0  0  0  0
    1.8807    0.2241    1.0532 H   0  0  0  0  0  0  0  0  0  0  0  0
    0.6600   -0.9140    1.5712 H   0  0  0  0  0  0  0  0  0  0  0  0
    1.6725   -0.5846   -1.3100 H   0  0  0  0  0  0  0  0  0  0  0  0
    0.5024   -1.8137   -0.7860 H   0  0  0  0  0  0  0  0  0  0  0  0
    0.0638    1.0935   -1.0555 H   0  0  0  0  0  0  0  0  0  0  0  0
   -3.6863    0.5011    0.7248 H   0  0  0  0  0  0  0  0  0  0  0  0
   -3.9883    0.4999   -2.3365 H   0  0  0  0  0  0  0  0  0  0  0  0
   -4.2974   -0.8471   -1.2461 H   0  0  0  0  0  0  0  0  0  0  0  0
   -6.3705    0.0443   -0.5504 H   0  0  0  0  0  0  0  0  0  0  0  0
   -6.2900    0.8709   -2.1088 H   0  0  0  0  0  0  0  0  0  0  0  0
   -6.1726    2.8954   -0.9299 H   0  0  0  0  0  0  0  0  0  0  0  0
   -6.1198    1.9955    0.5896 H   0  0  0  0  0  0  0  0  0  0  0  0
   -3.9235    2.9184    0.6312 H   0  0  0  0  0  0  0  0  0  0  0  0
   -3.8040    2.9341   -1.1264 H   0  0  0  0  0  0  0  0  0  0  0  0
  1  2  2  0
  2  3  1  0
  2  4  1  0
  4  5  1  0
  4  6  1  0
  6  7  1  0
  7  8  1  0
  8  9  1  0
  9 10  1  0
 10 11  1  0
 11 12  2  0
 11 13  1  0
 13 14  1  0
 14 15  1  0
 15 16  1  0
 16 17  1  0
 17 18  1  0
 18 14  1  0
  3 19  1  0
  4 20  1  6
  5 21  1  0
  5 22  1  0
  6 23  1  0
  6 24  1  0
  7 25  1  0
  7 26  1  0
  8 27  1  0
  8 28  1  0
  9 29  1  0
  9 30  1  0
 10 31  1  0
 14 32  1  0
 15 33  1  0
 15 34  1  0
 16 35  1  0
 16 36  1  0
 17 37  1  0
 17 38  1  0
 18 39  1  0
 18 40  1  0
M  END
>  <Name>  (172) 
UB52_CycK

>  <canvasUID>  (172) 
184

>  <MW>  (172) 
258.3141

>  <AlogP>  (172) 
1.4747

>  <HBA>  (172) 
2

>  <HBD>  (172) 
1

>  <RB>  (172) 
8

>  <PSA>  (172) 
101.65

>  <Estate>  (172) 
49

>  <Polar>  (172) 
26.168

>  <Chirality>  (172) 
[(3, 'S')]

$$$$

     RDKit          3D

 42 42  0  0  0  0  0  0  0  0999 V2000
   -6.1029   -0.5737    2.4894 O   0  0  0  0  0  0  0  0  0  0  0  0
   -6.1074   -0.0135    1.4049 C   0  0  0  0  0  0  0  0  0  0  0  0
   -6.3615    1.3135    1.3232 O   0  0  0  0  0  0  0  0  0  0  0  0
   -5.7756   -0.6516    0.0508 C   0  0  1  0  0  0  0  0  0  0  0  0
   -6.6598   -0.0891   -0.9958 N   0  0  0  0  0  0  0  0  0  0  0  0
   -4.3029   -0.4160   -0.3160 C   0  0  0  0  0  0  0  0  0  0  0  0
   -3.3367   -1.1194    0.6454 C   0  0  0  0  0  0  0  0  0  0  0  0
   -1.8769   -1.0654    0.1850 C   0  0  0  0  0  0  0  0  0  0  0  0
   -1.3035    0.3499    0.1463 C   0  0  0  0  0  0  0  0  0  0  0  0
    0.0975    0.3402   -0.2035 N   0  0  0  0  0  0  0  0  0  0  0  0
    1.0893    0.1804    0.7137 C   0  0  0  0  0  0  0  0  0  0  0  0
    0.9337    0.0557    1.9181 O   0  0  0  0  0  0  0  0  0  0  0  0
    2.2830    0.1754    0.0751 O   0  0  0  0  0  0  0  0  0  0  0  0
    3.4027    0.0819    0.9584 C   0  0  0  0  0  0  0  0  0  0  0  0
    4.6621    0.0379    0.1270 C   0  0  0  0  0  0  0  0  0  0  0  0
    4.9873    1.0165   -0.8311 C   0  0  0  0  0  0  0  0  0  0  0  0
    4.1191    2.1647   -1.0497 N   0  0  0  0  0  4  0  0  0  0  0  0
    3.7185    2.3578   -2.2062 O   0  0  0  0  0  1  0  0  0  0  0  0
    3.8679    2.8814   -0.0716 O   0  0  0  0  0  0  0  0  0  0  0  0
    6.1509    0.9354   -1.6099 C   0  0  0  0  0  0  0  0  0  0  0  0
    7.0230   -0.1342   -1.4231 C   0  0  0  0  0  0  0  0  0  0  0  0
    6.7313   -1.1093   -0.4697 C   0  0  0  0  0  0  0  0  0  0  0  0
    5.5641   -1.0257    0.2976 C   0  0  0  0  0  0  0  0  0  0  0  0
   -6.5660    1.5637    2.2485 H   0  0  0  0  0  0  0  0  0  0  0  0
   -5.9911   -1.7234    0.1215 H   0  0  0  0  0  0  0  0  0  0  0  0
   -6.2952   -0.3169   -1.9182 H   0  0  0  0  0  0  0  0  0  0  0  0
   -6.6321    0.9306   -0.9136 H   0  0  0  0  0  0  0  0  0  0  0  0
   -4.1178   -0.7887   -1.3318 H   0  0  0  0  0  0  0  0  0  0  0  0
   -4.0921    0.6605   -0.3253 H   0  0  0  0  0  0  0  0  0  0  0  0
   -3.4135   -0.6798    1.6466 H   0  0  0  0  0  0  0  0  0  0  0  0
   -3.6263   -2.1734    0.7378 H   0  0  0  0  0  0  0  0  0  0  0  0
   -1.7825   -1.5294   -0.8048 H   0  0  0  0  0  0  0  0  0  0  0  0
   -1.2784   -1.6810    0.8686 H   0  0  0  0  0  0  0  0  0  0  0  0
   -1.8106    0.9584   -0.6085 H   0  0  0  0  0  0  0  0  0  0  0  0
   -1.4239    0.8371    1.1202 H   0  0  0  0  0  0  0  0  0  0  0  0
    0.3868    0.4087   -1.1696 H   0  0  0  0  0  0  0  0  0  0  0  0
    3.3142   -0.8347    1.5549 H   0  0  0  0  0  0  0  0  0  0  0  0
    3.4364    0.9403    1.6395 H   0  0  0  0  0  0  0  0  0  0  0  0
    6.3810    1.6965   -2.3526 H   0  0  0  0  0  0  0  0  0  0  0  0
    7.9305   -0.2093   -2.0179 H   0  0  0  0  0  0  0  0  0  0  0  0
    7.4144   -1.9439   -0.3238 H   0  0  0  0  0  0  0  0  0  0  0  0
    5.3629   -1.8082    1.0282 H   0  0  0  0  0  0  0  0  0  0  0  0
  1  2  2  0
  2  3  1  0
  2  4  1  0
  4  5  1  0
  4  6  1  0
  6  7  1  0
  7  8  1  0
  8  9  1  0
  9 10  1  0
 10 11  1  0
 11 12  2  0
 11 13  1  0
 13 14  1  0
 14 15  1  0
 15 16  2  0
 16 17  1  0
 17 18  1  0
 17 19  2  0
 16 20  1  0
 20 21  2  0
 21 22  1  0
 22 23  2  0
 23 15  1  0
  3 24  1  0
  4 25  1  1
  5 26  1  0
  5 27  1  0
  6 28  1  0
  6 29  1  0
  7 30  1  0
  7 31  1  0
  8 32  1  0
  8 33  1  0
  9 34  1  0
  9 35  1  0
 10 36  1  0
 14 37  1  0
 14 38  1  0
 20 39  1  0
 21 40  1  0
 22 41  1  0
 23 42  1  0
M  CHG  2  17   1  18  -1
M  END
>  <Name>  (173) 
UB53_ONBK

>  <canvasUID>  (173) 
185

>  <MW>  (173) 
325.3172

>  <AlogP>  (173) 
1.5505

>  <HBA>  (173) 
2

>  <HBD>  (173) 
1

>  <RB>  (173) 
10

>  <PSA>  (173) 
144.79

>  <Estate>  (173) 
70.501

>  <Polar>  (173) 
34.072

>  <Chirality>  (173) 
[(3, 'S')]

$$$$

     RDKit          3D

 27 27  0  0  0  0  0  0  0  0999 V2000
   -2.8499    0.6471   -2.3897 O   0  0  0  0  0  0  0  0  0  0  0  0
   -2.5188    1.0234   -1.2740 C   0  0  0  0  0  0  0  0  0  0  0  0
   -1.9484    2.2317   -1.0984 O   0  0  0  0  0  0  0  0  0  0  0  0
   -2.6851    0.2358    0.0269 C   0  0  1  0  0  0  0  0  0  0  0  0
   -4.1169   -0.1141    0.1913 N   0  0  0  0  0  0  0  0  0  0  0  0
   -1.8092   -1.0274   -0.0181 C   0  0  0  0  0  0  0  0  0  0  0  0
   -0.3280   -0.7278   -0.0147 C   0  0  0  0  0  0  0  0  0  0  0  0
    0.3217   -0.3574    1.1687 C   0  0  0  0  0  0  0  0  0  0  0  0
    1.6905   -0.0643    1.1722 C   0  0  0  0  0  0  0  0  0  0  0  0
    2.4280   -0.1367   -0.0093 C   0  0  0  0  0  0  0  0  0  0  0  0
    1.7795   -0.5047   -1.1915 C   0  0  0  0  0  0  0  0  0  0  0  0
    0.4140   -0.7976   -1.1982 C   0  0  0  0  0  0  0  0  0  0  0  0
    3.7610    0.1204   -0.1535 O   0  0  0  0  0  0  0  0  0  0  0  0
    4.4895    0.4968    1.0016 C   0  0  0  0  0  0  0  0  0  0  0  0
    5.7792    0.7023    0.6522 F   0  0  0  0  0  0  0  0  0  0  0  0
    4.4602   -0.4766    1.9372 F   0  0  0  0  0  0  0  0  0  0  0  0
    4.0115    1.6443    1.5291 F   0  0  0  0  0  0  0  0  0  0  0  0
   -1.9269    2.6185   -1.9977 H   0  0  0  0  0  0  0  0  0  0  0  0
   -2.4004    0.8753    0.8702 H   0  0  0  0  0  0  0  0  0  0  0  0
   -4.2229   -0.7753    0.9583 H   0  0  0  0  0  0  0  0  0  0  0  0
   -4.4319   -0.5976   -0.6531 H   0  0  0  0  0  0  0  0  0  0  0  0
   -2.0565   -1.6346   -0.8995 H   0  0  0  0  0  0  0  0  0  0  0  0
   -2.0257   -1.6648    0.8500 H   0  0  0  0  0  0  0  0  0  0  0  0
   -0.2329   -0.2925    2.1032 H   0  0  0  0  0  0  0  0  0  0  0  0
    2.1397    0.2174    2.1203 H   0  0  0  0  0  0  0  0  0  0  0  0
    2.3411   -0.5644   -2.1214 H   0  0  0  0  0  0  0  0  0  0  0  0
   -0.0625   -1.0772   -2.1362 H   0  0  0  0  0  0  0  0  0  0  0  0
  1  2  2  0
  2  3  1  0
  2  4  1  0
  4  5  1  0
  4  6  1  0
  6  7  1  0
  7  8  2  0
  8  9  1  0
  9 10  2  0
 10 11  1  0
 11 12  2  0
 10 13  1  0
 13 14  1  0
 14 15  1  0
 14 16  1  0
 14 17  1  0
 12  7  1  0
  3 18  1  0
  4 19  1  1
  5 20  1  0
  5 21  1  0
  6 22  1  0
  6 23  1  0
  8 24  1  0
  9 25  1  0
 11 26  1  0
 12 27  1  0
M  END
>  <Name>  (174) 
UB54_OCF3Y

>  <canvasUID>  (174) 
186

>  <MW>  (174) 
249.1865

>  <AlogP>  (174) 
2.9685

>  <HBA>  (174) 
1

>  <HBD>  (174) 
0

>  <RB>  (174) 
5

>  <PSA>  (174) 
72.55

>  <Estate>  (174) 
62.584

>  <Polar>  (174) 
23.476

>  <Chirality>  (174) 
[(3, 'S')]

$$$$

     RDKit          3D

 28 28  0  0  0  0  0  0  0  0999 V2000
    2.1873    0.8515    2.1612 O   0  0  0  0  0  0  0  0  0  0  0  0
    2.6799    1.1817    1.0957 C   0  0  0  0  0  0  0  0  0  0  0  0
    3.4131    2.3216    1.0193 O   0  0  0  0  0  0  0  0  0  0  0  0
    2.5787    0.4766   -0.2659 C   0  0  1  0  0  0  0  0  0  0  0  0
    3.9456    0.3318   -0.8310 N   0  0  0  0  0  0  0  0  0  0  0  0
    1.9106   -0.9028   -0.1508 C   0  0  0  0  0  0  0  0  0  0  0  0
    0.3994   -0.8217   -0.1292 C   0  0  0  0  0  0  0  0  0  0  0  0
   -0.3027   -0.8795    1.0800 C   0  0  0  0  0  0  0  0  0  0  0  0
   -1.6966   -0.7914    1.0967 C   0  0  0  0  0  0  0  0  0  0  0  0
   -2.4164   -0.6510   -0.0967 C   0  0  0  0  0  0  0  0  0  0  0  0
   -3.9179   -0.5302   -0.0749 C   0  0  0  0  0  0  0  0  0  0  0  0
   -4.3341    0.8607    0.0631 N   0  0  0  0  0  0  0  0  0  0  0  0
   -1.7132   -0.5840   -1.3064 C   0  0  0  0  0  0  0  0  0  0  0  0
   -0.3191   -0.6714   -1.3229 C   0  0  0  0  0  0  0  0  0  0  0  0
    3.4143    2.6494    1.9430 H   0  0  0  0  0  0  0  0  0  0  0  0
    2.0013    1.1350   -0.9262 H   0  0  0  0  0  0  0  0  0  0  0  0
    3.8730    0.0904   -1.8179 H   0  0  0  0  0  0  0  0  0  0  0  0
    4.3898    1.2534   -0.7932 H   0  0  0  0  0  0  0  0  0  0  0  0
    2.2692   -1.4423    0.7357 H   0  0  0  0  0  0  0  0  0  0  0  0
    2.1873   -1.5316   -1.0086 H   0  0  0  0  0  0  0  0  0  0  0  0
    0.2320   -0.9874    2.0224 H   0  0  0  0  0  0  0  0  0  0  0  0
   -2.2179   -0.8332    2.0508 H   0  0  0  0  0  0  0  0  0  0  0  0
   -4.3309   -1.1210    0.7508 H   0  0  0  0  0  0  0  0  0  0  0  0
   -4.3426   -0.9504   -0.9939 H   0  0  0  0  0  0  0  0  0  0  0  0
   -3.9227    1.2373    0.9165 H   0  0  0  0  0  0  0  0  0  0  0  0
   -3.9196    1.3999   -0.6958 H   0  0  0  0  0  0  0  0  0  0  0  0
   -2.2500   -0.4662   -2.2453 H   0  0  0  0  0  0  0  0  0  0  0  0
    0.2021   -0.6249   -2.2766 H   0  0  0  0  0  0  0  0  0  0  0  0
  1  2  2  0
  2  3  1  0
  2  4  1  0
  4  5  1  0
  4  6  1  0
  6  7  1  0
  7  8  2  0
  8  9  1  0
  9 10  2  0
 10 11  1  0
 11 12  1  0
 10 13  1  0
 13 14  2  0
 14  7  1  0
  3 15  1  0
  4 16  1  6
  5 17  1  0
  5 18  1  0
  6 19  1  0
  6 20  1  0
  8 21  1  0
  9 22  1  0
 11 23  1  0
 11 24  1  0
 12 25  1  0
 12 26  1  0
 13 27  1  0
 14 28  1  0
M  END
>  <Name>  (175) 
UB55_NMeF

>  <canvasUID>  (175) 
187

>  <MW>  (175) 
194.2304

>  <AlogP>  (175) 
-0.0455

>  <HBA>  (175) 
0

>  <HBD>  (175) 
0

>  <RB>  (175) 
4

>  <PSA>  (175) 
89.34

>  <Estate>  (175) 
39.334

>  <Polar>  (175) 
24.463

>  <Chirality>  (175) 
[(3, 'S')]

$$$$

     RDKit          3D

 30 31  0  0  0  0  0  0  0  0999 V2000
   -2.4352    2.1290   -0.6271 O   0  0  0  0  0  0  0  0  0  0  0  0
   -2.6597    2.0543    0.5691 C   0  0  0  0  0  0  0  0  0  0  0  0
   -3.0454    3.1625    1.2514 O   0  0  0  0  0  0  0  0  0  0  0  0
   -2.5525    0.8278    1.4884 C   0  0  1  0  0  0  0  0  0  0  0  0
   -3.8204    0.6920    2.2514 N   0  0  0  0  0  0  0  0  0  0  0  0
   -2.2747   -0.4607    0.6973 C   0  0  0  0  0  0  0  0  0  0  0  0
   -0.8065   -0.6446    0.3776 C   0  0  0  0  0  0  0  0  0  0  0  0
   -0.2917   -0.2637   -0.8692 C   0  0  0  0  0  0  0  0  0  0  0  0
    0.0626   -1.1844    1.3322 C   0  0  0  0  0  0  0  0  0  0  0  0
    1.4207   -1.3428    1.0459 C   0  0  0  0  0  0  0  0  0  0  0  0
    1.9417   -0.9622   -0.2001 C   0  0  0  0  0  0  0  0  0  0  0  0
    1.0723   -0.4137   -1.1712 C   0  0  0  0  0  0  0  0  0  0  0  0
    3.3058   -1.1141   -0.5017 C   0  0  0  0  0  0  0  0  0  0  0  0
    3.7922   -0.7246   -1.7471 C   0  0  0  0  0  0  0  0  0  0  0  0
    5.1108   -0.8593   -2.0694 O   0  0  0  0  0  0  0  0  0  0  0  0
    2.9465   -0.1837   -2.7049 C   0  0  0  0  0  0  0  0  0  0  0  0
    1.5899   -0.0284   -2.4185 C   0  0  0  0  0  0  0  0  0  0  0  0
   -3.0906    3.8501    0.5541 H   0  0  0  0  0  0  0  0  0  0  0  0
   -1.7423    1.0292    2.1999 H   0  0  0  0  0  0  0  0  0  0  0  0
   -3.6762    0.0418    3.0219 H   0  0  0  0  0  0  0  0  0  0  0  0
   -4.0179    1.6016    2.6776 H   0  0  0  0  0  0  0  0  0  0  0  0
   -2.5913   -1.3384    1.2780 H   0  0  0  0  0  0  0  0  0  0  0  0
   -2.8658   -0.4934   -0.2273 H   0  0  0  0  0  0  0  0  0  0  0  0
   -0.9619    0.1608   -1.6163 H   0  0  0  0  0  0  0  0  0  0  0  0
   -0.3113   -1.4913    2.3066 H   0  0  0  0  0  0  0  0  0  0  0  0
    2.0707   -1.7685    1.8070 H   0  0  0  0  0  0  0  0  0  0  0  0
    3.9773   -1.5356    0.2400 H   0  0  0  0  0  0  0  0  0  0  0  0
    5.5765   -1.2538   -1.3142 H   0  0  0  0  0  0  0  0  0  0  0  0
    3.3392    0.1166   -3.6719 H   0  0  0  0  0  0  0  0  0  0  0  0
    0.9373    0.3976   -3.1774 H   0  0  0  0  0  0  0  0  0  0  0  0
  1  2  2  0
  2  3  1  0
  2  4  1  0
  4  5  1  0
  4  6  1  0
  6  7  1  0
  7  8  2  0
  7  9  1  0
  9 10  2  0
 10 11  1  0
 11 12  2  0
 11 13  1  0
 13 14  2  0
 14 15  1  0
 14 16  1  0
 16 17  2  0
 12  8  1  0
 17 12  1  0
  3 18  1  0
  4 19  1  1
  5 20  1  0
  5 21  1  0
  6 22  1  0
  6 23  1  0
  8 24  1  0
  9 25  1  0
 10 26  1  0
 13 27  1  0
 15 28  1  0
 16 29  1  0
 17 30  1  0
M  END
>  <Name>  (176) 
UB56_NapY

>  <canvasUID>  (176) 
188

>  <MW>  (176) 
231.2472

>  <AlogP>  (176) 
1.4896

>  <HBA>  (176) 
1

>  <HBD>  (176) 
1

>  <RB>  (176) 
3

>  <PSA>  (176) 
83.55

>  <Estate>  (176) 
47.168

>  <Polar>  (176) 
30.272

>  <Chirality>  (176) 
[(3, 'S')]

$$$$

     RDKit          3D

 33 33  0  0  0  0  0  0  0  0999 V2000
    5.4905    1.5904   -0.8172 C   0  0  0  0  0  0  0  0  0  0  0  0
    4.6774    1.7050    0.4462 C   0  0  0  0  0  0  0  0  0  0  0  0
    5.0252    2.4623    1.3555 O   0  0  0  0  0  0  0  0  0  0  0  0
    3.4567    0.8311    0.5963 C   0  0  0  0  0  0  0  0  0  0  0  0
    2.4128    1.0021   -0.4780 C   0  0  0  0  0  0  0  0  0  0  0  0
    2.5997    1.7032   -1.4698 O   0  0  0  0  0  0  0  0  0  0  0  0
    1.1131    0.2752   -0.3364 C   0  0  0  0  0  0  0  0  0  0  0  0
    0.8560   -0.6070    0.7193 C   0  0  0  0  0  0  0  0  0  0  0  0
   -0.3772   -1.2624    0.8051 C   0  0  0  0  0  0  0  0  0  0  0  0
   -1.3684   -1.0484   -0.1611 C   0  0  0  0  0  0  0  0  0  0  0  0
   -1.1085   -0.1668   -1.2167 C   0  0  0  0  0  0  0  0  0  0  0  0
    0.1223    0.4883   -1.3037 C   0  0  0  0  0  0  0  0  0  0  0  0
   -2.7079   -1.7419   -0.0548 C   0  0  0  0  0  0  0  0  0  0  0  0
   -3.6343   -1.1176    1.0022 C   0  0  2  0  0  0  0  0  0  0  0  0
   -4.8591   -1.9324    1.1861 N   0  0  0  0  0  0  0  0  0  0  0  0
   -4.0414    0.2895    0.5607 C   0  0  0  0  0  0  0  0  0  0  0  0
   -4.7581    0.5647   -0.3912 O   0  0  0  0  0  0  0  0  0  0  0  0
   -3.5175    1.2635    1.3310 O   0  0  0  0  0  0  0  0  0  0  0  0
    6.5363    1.8214   -0.5952 H   0  0  0  0  0  0  0  0  0  0  0  0
    5.1180    2.2919   -1.5663 H   0  0  0  0  0  0  0  0  0  0  0  0
    5.4448    0.5684   -1.2024 H   0  0  0  0  0  0  0  0  0  0  0  0
    3.0045    1.0746    1.5646 H   0  0  0  0  0  0  0  0  0  0  0  0
    3.7974   -0.2096    0.6119 H   0  0  0  0  0  0  0  0  0  0  0  0
    1.5919   -0.8067    1.4926 H   0  0  0  0  0  0  0  0  0  0  0  0
   -0.5588   -1.9419    1.6363 H   0  0  0  0  0  0  0  0  0  0  0  0
   -1.8623    0.0230   -1.9796 H   0  0  0  0  0  0  0  0  0  0  0  0
    0.3006    1.1708   -2.1335 H   0  0  0  0  0  0  0  0  0  0  0  0
   -3.1965   -1.7447   -1.0387 H   0  0  0  0  0  0  0  0  0  0  0  0
   -2.5216   -2.7974    0.1860 H   0  0  0  0  0  0  0  0  0  0  0  0
   -3.1305   -1.0548    1.9733 H   0  0  0  0  0  0  0  0  0  0  0  0
   -4.6094   -2.9132    1.2969 H   0  0  0  0  0  0  0  0  0  0  0  0
   -5.4216   -1.8710    0.3338 H   0  0  0  0  0  0  0  0  0  0  0  0
   -3.8741    2.0905    0.9454 H   0  0  0  0  0  0  0  0  0  0  0  0
  1  2  1  0
  2  3  2  0
  2  4  1  0
  4  5  1  0
  5  6  2  0
  5  7  1  0
  7  8  2  0
  8  9  1  0
  9 10  2  0
 10 11  1  0
 11 12  2  0
 10 13  1  0
 13 14  1  0
 14 15  1  0
 14 16  1  0
 16 17  2  0
 16 18  1  0
 12  7  1  0
  1 19  1  0
  1 20  1  0
  1 21  1  0
  4 22  1  0
  4 23  1  0
  8 24  1  0
  9 25  1  0
 11 26  1  0
 12 27  1  0
 13 28  1  0
 13 29  1  0
 14 30  1  1
 15 31  1  0
 15 32  1  0
 18 33  1  0
M  END
>  <Name>  (177) 
UB57_pDkF

>  <canvasUID>  (177) 
189

>  <MW>  (177) 
249.2625

>  <AlogP>  (177) 
0.3595

>  <HBA>  (177) 
2

>  <HBD>  (177) 
0

>  <RB>  (177) 
6

>  <PSA>  (177) 
97.46

>  <Estate>  (177) 
54.668

>  <Polar>  (177) 
28.789

>  <Chirality>  (177) 
[(13, 'S')]

$$$$

     RDKit          3D

 17 16  0  0  0  0  0  0  0  0999 V2000
    2.9204   -0.2667    0.6804 O   0  0  0  0  0  0  0  0  0  0  0  0
    2.0377    0.2523    0.0127 C   0  0  0  0  0  0  0  0  0  0  0  0
    2.1681    1.5253   -0.4093 O   0  0  0  0  0  0  0  0  0  0  0  0
    0.7377   -0.4094   -0.4416 C   0  0  1  0  0  0  0  0  0  0  0  0
    0.8134   -1.8791   -0.2093 N   0  0  0  0  0  0  0  0  0  0  0  0
   -0.4423    0.2273    0.3087 C   0  0  0  0  0  0  0  0  0  0  0  0
   -1.6671   -0.0493   -0.3797 O   0  0  0  0  0  0  0  0  0  0  0  0
   -2.7935    0.4504    0.3268 C   0  0  0  0  0  0  0  0  0  0  0  0
    3.0482    1.8020   -0.0766 H   0  0  0  0  0  0  0  0  0  0  0  0
    0.6344   -0.2614   -1.5225 H   0  0  0  0  0  0  0  0  0  0  0  0
    1.0232   -2.0376    0.7778 H   0  0  0  0  0  0  0  0  0  0  0  0
    1.6281   -2.2391   -0.7078 H   0  0  0  0  0  0  0  0  0  0  0  0
   -0.4967   -0.1562    1.3357 H   0  0  0  0  0  0  0  0  0  0  0  0
   -0.3216    1.3157    0.3668 H   0  0  0  0  0  0  0  0  0  0  0  0
   -2.8748   -0.0295    1.3068 H   0  0  0  0  0  0  0  0  0  0  0  0
   -2.7223    1.5361    0.4433 H   0  0  0  0  0  0  0  0  0  0  0  0
   -3.6928    0.2192   -0.2504 H   0  0  0  0  0  0  0  0  0  0  0  0
  1  2  2  0
  2  3  1  0
  2  4  1  0
  4  5  1  0
  4  6  1  0
  6  7  1  0
  7  8  1  0
  3  9  1  0
  4 10  1  6
  5 11  1  0
  5 12  1  0
  6 13  1  0
  6 14  1  0
  8 15  1  0
  8 16  1  0
  8 17  1  0
M  END
>  <Name>  (178) 
UB58_OMeS

>  <canvasUID>  (178) 
190

>  <MW>  (178) 
119.1192

>  <AlogP>  (178) 
-1.187

>  <HBA>  (178) 
1

>  <HBD>  (178) 
0

>  <RB>  (178) 
3

>  <PSA>  (178) 
72.55

>  <Estate>  (178) 
28

>  <Polar>  (178) 
10.825

>  <Chirality>  (178) 
[(3, 'S')]

$$$$

     RDKit          3D

 20 19  0  0  0  0  0  0  0  0999 V2000
   -2.3414    0.0344   -1.3791 O   0  0  0  0  0  0  0  0  0  0  0  0
   -1.9308    0.1966   -0.2392 C   0  0  0  0  0  0  0  0  0  0  0  0
   -2.6164    0.9595    0.6333 O   0  0  0  0  0  0  0  0  0  0  0  0
   -0.6596   -0.4166    0.3533 C   0  0  1  0  0  0  0  0  0  0  0  0
   -0.5405   -1.8132   -0.1660 N   0  0  0  0  0  0  0  0  0  0  0  0
    0.5891    0.4397    0.0082 C   0  0  1  0  0  0  0  0  0  0  0  0
    0.3490    1.9405    0.1972 C   0  0  0  0  0  0  0  0  0  0  0  0
    1.7078    0.1533    0.8718 O   0  0  0  0  0  0  0  0  0  0  0  0
    2.3122   -1.1127    0.6493 C   0  0  0  0  0  0  0  0  0  0  0  0
   -3.3980    1.2695    0.1291 H   0  0  0  0  0  0  0  0  0  0  0  0
   -0.7722   -0.4949    1.4408 H   0  0  0  0  0  0  0  0  0  0  0  0
   -1.3680   -2.3352    0.1259 H   0  0  0  0  0  0  0  0  0  0  0  0
   -0.6056   -1.7712   -1.1871 H   0  0  0  0  0  0  0  0  0  0  0  0
    0.8919    0.2822   -1.0355 H   0  0  0  0  0  0  0  0  0  0  0  0
    1.2811    2.4971    0.0459 H   0  0  0  0  0  0  0  0  0  0  0  0
    0.0175    2.1583    1.2186 H   0  0  0  0  0  0  0  0  0  0  0  0
   -0.3903    2.3308   -0.5081 H   0  0  0  0  0  0  0  0  0  0  0  0
    3.2963   -1.1035    1.1269 H   0  0  0  0  0  0  0  0  0  0  0  0
    2.4510   -1.3090   -0.4180 H   0  0  0  0  0  0  0  0  0  0  0  0
    1.7269   -1.9058    1.1203 H   0  0  0  0  0  0  0  0  0  0  0  0
  1  2  2  0
  2  3  1  0
  2  4  1  0
  4  5  1  0
  4  6  1  0
  6  7  1  0
  6  8  1  0
  8  9  1  0
  3 10  1  0
  4 11  1  1
  5 12  1  0
  5 13  1  0
  6 14  1  6
  7 15  1  0
  7 16  1  0
  7 17  1  0
  9 18  1  0
  9 19  1  0
  9 20  1  0
M  END
>  <Name>  (179) 
UB59_OMeT

>  <canvasUID>  (179) 
191

>  <MW>  (179) 
133.1457

>  <AlogP>  (179) 
-0.8095

>  <HBA>  (179) 
1

>  <HBD>  (179) 
0

>  <RB>  (179) 
3

>  <PSA>  (179) 
72.55

>  <Estate>  (179) 
29.833

>  <Polar>  (179) 
12.66

>  <Chirality>  (179) 
[(3, 'S'), (5, 'R')]

$$$$

     RDKit          3D

 21 21  0  0  0  0  0  0  0  0999 V2000
    2.0060   -1.4507    1.4091 O   0  0  0  0  0  0  0  0  0  0  0  0
    2.3692   -0.5848    0.6290 C   0  0  0  0  0  0  0  0  0  0  0  0
    3.6859   -0.4948    0.3046 O   0  0  0  0  0  0  0  0  0  0  0  0
    1.5272    0.5318   -0.0204 C   0  0  1  0  0  0  0  0  0  0  0  0
    1.9658    0.7616   -1.4167 N   0  0  0  0  0  0  0  0  0  0  0  0
    0.0359    0.2632    0.0356 C   0  0  0  0  0  0  0  0  0  0  0  0
   -0.5523   -0.7404   -0.7543 C   0  0  0  0  0  0  0  0  0  0  0  0
   -1.9260   -0.9867   -0.6934 C   0  0  0  0  0  0  0  0  0  0  0  0
   -2.7183   -0.2287    0.1611 C   0  0  0  0  0  0  0  0  0  0  0  0
   -4.0632   -0.4344    0.2526 O   0  0  0  0  0  0  0  0  0  0  0  0
   -2.1602    0.7670    0.9525 C   0  0  0  0  0  0  0  0  0  0  0  0
   -0.7868    1.0126    0.8925 C   0  0  0  0  0  0  0  0  0  0  0  0
    4.0821   -1.2585    0.7745 H   0  0  0  0  0  0  0  0  0  0  0  0
    1.7524    1.4424    0.5495 H   0  0  0  0  0  0  0  0  0  0  0  0
    2.9776    0.9003   -1.3987 H   0  0  0  0  0  0  0  0  0  0  0  0
    1.5505    1.6316   -1.7433 H   0  0  0  0  0  0  0  0  0  0  0  0
    0.0653   -1.3343   -1.4260 H   0  0  0  0  0  0  0  0  0  0  0  0
   -2.3517   -1.7672   -1.3154 H   0  0  0  0  0  0  0  0  0  0  0  0
   -4.3003   -1.1712   -0.3339 H   0  0  0  0  0  0  0  0  0  0  0  0
   -2.7921    1.3486    1.6176 H   0  0  0  0  0  0  0  0  0  0  0  0
   -0.3671    1.7924    1.5237 H   0  0  0  0  0  0  0  0  0  0  0  0
  1  2  2  0
  2  3  1  0
  2  4  1  0
  4  5  1  0
  4  6  1  0
  6  7  2  0
  7  8  1  0
  8  9  2  0
  9 10  1  0
  9 11  1  0
 11 12  2  0
 12  6  1  0
  3 13  1  0
  4 14  1  1
  5 15  1  0
  5 16  1  0
  7 17  1  0
  8 18  1  0
 10 19  1  0
 11 20  1  0
 12 21  1  0
M  END
>  <Name>  (180) 
UB60_norY

>  <canvasUID>  (180) 
192

>  <MW>  (180) 
167.162

>  <AlogP>  (180) 
0.26

>  <HBA>  (180) 
1

>  <HBD>  (180) 
1

>  <RB>  (180) 
2

>  <PSA>  (180) 
83.55

>  <Estate>  (180) 
38.334

>  <Polar>  (180) 
20.079

>  <Chirality>  (180) 
[(3, 'S')]

$$$$

     RDKit          3D

 26 27  0  0  0  0  0  0  0  0999 V2000
    4.3065    1.4491   -0.7263 O   0  0  0  0  0  0  0  0  0  0  0  0
    3.7318    0.4607   -0.2973 C   0  0  0  0  0  0  0  0  0  0  0  0
    4.3426   -0.3436    0.6034 O   0  0  0  0  0  0  0  0  0  0  0  0
    2.2931    0.0481   -0.6114 C   0  0  1  0  0  0  0  0  0  0  0  0
    2.1668   -1.4297   -0.5990 N   0  0  0  0  0  0  0  0  0  0  0  0
    1.3733    0.7466    0.4051 C   0  0  0  0  0  0  0  0  0  0  0  0
   -0.1024    0.5632    0.1221 C   0  0  0  0  0  0  0  0  0  0  0  0
   -0.8789   -0.2730    0.9500 C   0  0  0  0  0  0  0  0  0  0  0  0
   -0.6974    1.2214   -0.9673 C   0  0  0  0  0  0  0  0  0  0  0  0
   -2.0566    1.0676   -1.2642 C   0  0  0  0  0  0  0  0  0  0  0  0
   -2.7854    0.2316   -0.4241 C   0  0  0  0  0  0  0  0  0  0  0  0
   -2.2468   -0.4396    0.6665 C   0  0  0  0  0  0  0  0  0  0  0  0
   -4.1130   -0.0484   -0.5429 O   0  0  0  0  0  0  0  0  0  0  0  0
   -4.4297   -0.8977    0.4691 C   0  0  0  0  0  0  0  0  0  0  0  0
   -3.3220   -1.1690    1.2394 C   0  0  0  0  0  0  0  0  0  0  0  0
    5.2442    0.0334    0.6765 H   0  0  0  0  0  0  0  0  0  0  0  0
    2.0766    0.3819   -1.6325 H   0  0  0  0  0  0  0  0  0  0  0  0
    1.1790   -1.6817   -0.6141 H   0  0  0  0  0  0  0  0  0  0  0  0
    2.5457   -1.7723    0.2861 H   0  0  0  0  0  0  0  0  0  0  0  0
    1.6027    0.3959    1.4208 H   0  0  0  0  0  0  0  0  0  0  0  0
    1.5849    1.8246    0.4224 H   0  0  0  0  0  0  0  0  0  0  0  0
   -0.4358   -0.7864    1.7987 H   0  0  0  0  0  0  0  0  0  0  0  0
   -0.0993    1.8718   -1.6044 H   0  0  0  0  0  0  0  0  0  0  0  0
   -2.5237    1.5705   -2.1020 H   0  0  0  0  0  0  0  0  0  0  0  0
   -5.4633   -1.2125    0.5059 H   0  0  0  0  0  0  0  0  0  0  0  0
   -3.2930   -1.8126    2.1066 H   0  0  0  0  0  0  0  0  0  0  0  0
  1  2  2  0
  2  3  1  0
  2  4  1  0
  4  5  1  0
  4  6  1  0
  6  7  1  0
  7  8  2  0
  7  9  1  0
  9 10  2  0
 10 11  1  0
 11 12  2  0
 11 13  1  0
 13 14  1  0
 14 15  2  0
 12  8  1  0
 15 12  1  0
  3 16  1  0
  4 17  1  6
  5 18  1  0
  5 19  1  0
  6 20  1  0
  6 21  1  0
  8 22  1  0
  9 23  1  0
 10 24  1  0
 14 25  1  0
 15 26  1  0
M  END
>  <Name>  (181) 
UB61_BzFurA

>  <canvasUID>  (181) 
193

>  <MW>  (181) 
205.2099

>  <AlogP>  (181) 
0.9247

>  <HBA>  (181) 
1

>  <HBD>  (181) 
0

>  <RB>  (181) 
3

>  <PSA>  (181) 
76.46

>  <Estate>  (181) 
41.001

>  <Polar>  (181) 
25.343

>  <Chirality>  (181) 
[(3, 'S')]

$$$$

     RDKit          3D

 25 26  0  0  0  0  0  0  0  0999 V2000
    4.0505    0.2524   -1.5256 O   0  0  0  0  0  0  0  0  0  0  0  0
    3.5310    0.2555   -0.4205 C   0  0  0  0  0  0  0  0  0  0  0  0
    4.1604    0.8413    0.6246 O   0  0  0  0  0  0  0  0  0  0  0  0
    2.1396   -0.2785   -0.0766 C   0  0  1  0  0  0  0  0  0  0  0  0
    2.1186   -0.8037    1.3106 N   0  0  0  0  0  0  0  0  0  0  0  0
    1.1306    0.8591   -0.3111 C   0  0  0  0  0  0  0  0  0  0  0  0
   -0.3152    0.4358   -0.1660 C   0  0  0  0  0  0  0  0  0  0  0  0
   -0.9116   -0.3727   -1.1530 C   0  0  0  0  0  0  0  0  0  0  0  0
   -1.0642    0.8428    0.9520 C   0  0  0  0  0  0  0  0  0  0  0  0
   -2.4026    0.4643    1.1243 C   0  0  0  0  0  0  0  0  0  0  0  0
   -2.9532   -0.3372    0.1250 C   0  0  0  0  0  0  0  0  0  0  0  0
   -2.2502   -0.7585   -0.9944 C   0  0  0  0  0  0  0  0  0  0  0  0
   -4.1877   -0.8925   -0.0610 N   0  0  0  0  0  0  0  0  0  0  0  0
   -4.2536   -1.6019   -1.1993 N   0  0  0  0  0  0  0  0  0  0  0  0
   -3.0640   -1.5262   -1.7838 N   0  0  0  0  0  0  0  0  0  0  0  0
    5.0289    1.1028    0.2532 H   0  0  0  0  0  0  0  0  0  0  0  0
    1.9423   -1.1239   -0.7454 H   0  0  0  0  0  0  0  0  0  0  0  0
    2.4897   -0.0796    1.9288 H   0  0  0  0  0  0  0  0  0  0  0  0
    1.1535   -0.9696    1.5925 H   0  0  0  0  0  0  0  0  0  0  0  0
    1.3425    1.6946    0.3703 H   0  0  0  0  0  0  0  0  0  0  0  0
    1.2637    1.2751   -1.3194 H   0  0  0  0  0  0  0  0  0  0  0  0
   -0.3625   -0.7005   -2.0299 H   0  0  0  0  0  0  0  0  0  0  0  0
   -0.6031    1.4717    1.7133 H   0  0  0  0  0  0  0  0  0  0  0  0
   -2.9727    0.7838    1.9899 H   0  0  0  0  0  0  0  0  0  0  0  0
   -5.0109   -0.8345    0.5250 H   0  0  0  0  0  0  0  0  0  0  0  0
  1  2  2  0
  2  3  1  0
  2  4  1  0
  4  5  1  0
  4  6  1  0
  6  7  1  0
  7  8  2  0
  7  9  1  0
  9 10  2  0
 10 11  1  0
 11 12  2  0
 11 13  1  0
 13 14  1  0
 14 15  2  0
 12  8  1  0
 15 12  1  0
  3 16  1  0
  4 17  1  6
  5 18  1  0
  5 19  1  0
  6 20  1  0
  6 21  1  0
  8 22  1  0
  9 23  1  0
 10 24  1  0
 13 25  1  0
M  END
>  <Name>  (182) 
UB62_BzTazA

>  <canvasUID>  (182) 
194

>  <MW>  (182) 
206.2013

>  <AlogP>  (182) 
0.4083

>  <HBA>  (182) 
2

>  <HBD>  (182) 
1

>  <RB>  (182) 
3

>  <PSA>  (182) 
104.89

>  <Estate>  (182) 
42.001

>  <Polar>  (182) 
23.98

>  <Chirality>  (182) 
[(3, 'S')]

$$$$

     RDKit          3D

 23 22  0  0  0  0  0  0  0  0999 V2000
    4.2592    0.3755   -0.5381 N   0  0  0  0  0  0  0  0  0  0  0  0
    3.1051    0.5660    0.1662 C   0  0  0  0  0  0  0  0  0  0  0  0
    3.1275    1.0685    1.2819 O   0  0  0  0  0  0  0  0  0  0  0  0
    1.8550    0.1316   -0.5690 C   0  0  0  0  0  0  0  0  0  0  0  0
    0.5994    0.2689    0.2904 C   0  0  0  0  0  0  0  0  0  0  0  0
   -0.6561   -0.1236   -0.4962 C   0  0  0  0  0  0  0  0  0  0  0  0
   -1.9449    0.0168    0.3248 C   0  0  2  0  0  0  0  0  0  0  0  0
   -1.9505   -0.9457    1.4501 N   0  0  0  0  0  0  0  0  0  0  0  0
   -3.1729   -0.2174   -0.5644 C   0  0  0  0  0  0  0  0  0  0  0  0
   -3.9823   -1.1271   -0.4588 O   0  0  0  0  0  0  0  0  0  0  0  0
   -3.3255    0.7210   -1.5195 O   0  0  0  0  0  0  0  0  0  0  0  0
    4.2982   -0.2083   -1.3614 H   0  0  0  0  0  0  0  0  0  0  0  0
    5.1247    0.5854   -0.0573 H   0  0  0  0  0  0  0  0  0  0  0  0
    1.7626    0.7488   -1.4704 H   0  0  0  0  0  0  0  0  0  0  0  0
    1.9802   -0.9123   -0.8797 H   0  0  0  0  0  0  0  0  0  0  0  0
    0.7038   -0.3591    1.1831 H   0  0  0  0  0  0  0  0  0  0  0  0
    0.5016    1.3038    0.6411 H   0  0  0  0  0  0  0  0  0  0  0  0
   -0.5571   -1.1540   -0.8631 H   0  0  0  0  0  0  0  0  0  0  0  0
   -0.7214    0.5091   -1.3907 H   0  0  0  0  0  0  0  0  0  0  0  0
   -2.0288    1.0259    0.7442 H   0  0  0  0  0  0  0  0  0  0  0  0
   -2.8323   -0.8399    1.9560 H   0  0  0  0  0  0  0  0  0  0  0  0
   -1.9980   -1.8910    1.0634 H   0  0  0  0  0  0  0  0  0  0  0  0
   -4.1476    0.4569   -1.9838 H   0  0  0  0  0  0  0  0  0  0  0  0
  1  2  1  0
  2  3  2  0
  2  4  1  0
  4  5  1  0
  5  6  1  0
  6  7  1  0
  7  8  1  0
  7  9  1  0
  9 10  2  0
  9 11  1  0
  1 12  1  0
  1 13  1  0
  4 14  1  0
  4 15  1  0
  5 16  1  0
  5 17  1  0
  6 18  1  0
  6 19  1  0
  7 20  1  1
  8 21  1  0
  8 22  1  0
 11 23  1  0
M  END
>  <Name>  (183) 
UB63_hGln

>  <canvasUID>  (183) 
195

>  <MW>  (183) 
160.1711

>  <AlogP>  (183) 
-1.208

>  <HBA>  (183) 
1

>  <HBD>  (183) 
1

>  <RB>  (183) 
5

>  <PSA>  (183) 
106.41

>  <Estate>  (183) 
38.167

>  <Polar>  (183) 
15.295

>  <Chirality>  (183) 
[(6, 'S')]

$$$$

     RDKit          3D

 27 28  0  0  0  0  0  0  0  0999 V2000
   -1.6327    0.3784    2.3098 O   0  0  0  0  0  0  0  0  0  0  0  0
   -2.0582    0.7325    1.2220 C   0  0  0  0  0  0  0  0  0  0  0  0
   -2.1524    2.0516    0.9264 O   0  0  0  0  0  0  0  0  0  0  0  0
   -2.5179   -0.1725    0.0765 C   0  0  1  0  0  0  0  0  0  0  0  0
   -3.8481    0.2851   -0.4045 N   0  0  0  0  0  0  0  0  0  0  0  0
   -1.4801   -0.1670   -1.0574 C   0  0  0  0  0  0  0  0  0  0  0  0
   -0.1691   -0.7819   -0.6690 C   0  0  0  0  0  0  0  0  0  0  0  0
    0.1130   -2.1339   -0.6074 C   0  0  0  0  0  0  0  0  0  0  0  0
    1.4115   -2.2879   -0.2012 N   0  0  0  0  0  0  0  0  0  0  0  0
    1.9907   -1.0585   -0.0045 C   0  0  0  0  0  0  0  0  0  0  0  0
    1.0272   -0.0909   -0.2910 C   0  0  0  0  0  0  0  0  0  0  0  0
    3.2838   -0.7270    0.4048 C   0  0  0  0  0  0  0  0  0  0  0  0
    4.1850   -1.6814    0.6705 F   0  0  0  0  0  0  0  0  0  0  0  0
    3.6267    0.6130    0.5329 C   0  0  0  0  0  0  0  0  0  0  0  0
    2.6822    1.5885    0.2524 C   0  0  0  0  0  0  0  0  0  0  0  0
    3.0199    2.8794    0.3782 F   0  0  0  0  0  0  0  0  0  0  0  0
    1.3856    1.2665   -0.1591 C   0  0  0  0  0  0  0  0  0  0  0  0
   -1.8666    2.4838    1.7592 H   0  0  0  0  0  0  0  0  0  0  0  0
   -2.6441   -1.1829    0.4821 H   0  0  0  0  0  0  0  0  0  0  0  0
   -3.7768    1.2819   -0.6229 H   0  0  0  0  0  0  0  0  0  0  0  0
   -4.0782   -0.1882   -1.2760 H   0  0  0  0  0  0  0  0  0  0  0  0
   -1.8750   -0.7281   -1.9154 H   0  0  0  0  0  0  0  0  0  0  0  0
   -1.3122    0.8563   -1.4175 H   0  0  0  0  0  0  0  0  0  0  0  0
   -0.5024   -3.0009   -0.8109 H   0  0  0  0  0  0  0  0  0  0  0  0
    1.8859   -3.1704   -0.0598 H   0  0  0  0  0  0  0  0  0  0  0  0
    4.6244    0.8929    0.8503 H   0  0  0  0  0  0  0  0  0  0  0  0
    0.6778    2.0617   -0.3685 H   0  0  0  0  0  0  0  0  0  0  0  0
  1  2  2  0
  2  3  1  0
  2  4  1  0
  4  5  1  0
  4  6  1  0
  6  7  1  0
  7  8  2  0
  8  9  1  0
  9 10  1  0
 10 11  2  0
 10 12  1  0
 12 13  1  0
 12 14  2  0
 14 15  1  0
 15 16  1  0
 15 17  2  0
 11  7  1  0
 17 11  1  0
  3 18  1  0
  4 19  1  1
  5 20  1  0
  5 21  1  0
  6 22  1  0
  6 23  1  0
  8 24  1  0
  9 25  1  0
 14 26  1  0
 17 27  1  0
M  END
>  <Name>  (184) 
UB64_F2W

>  <canvasUID>  (184) 
196

>  <MW>  (184) 
240.2061

>  <AlogP>  (184) 
1.0373

>  <HBA>  (184) 
0

>  <HBD>  (184) 
1

>  <RB>  (184) 
3

>  <PSA>  (184) 
79.11

>  <Estate>  (184) 
55.335

>  <Polar>  (184) 
26.304

>  <Chirality>  (184) 
[(3, 'S')]

$$$$

     RDKit          3D

 26 26  0  0  0  0  0  0  0  0999 V2000
   -2.5022    1.9465    0.3957 O   0  0  0  0  0  0  0  0  0  0  0  0
   -2.6531    1.0175   -0.3827 C   0  0  0  0  0  0  0  0  0  0  0  0
   -2.9979    1.2663   -1.6690 O   0  0  0  0  0  0  0  0  0  0  0  0
   -2.6020   -0.4794   -0.0489 C   0  0  1  0  0  0  0  0  0  0  0  0
   -2.3840   -1.3004   -1.2655 N   0  0  0  0  0  0  0  0  0  0  0  0
   -1.5753   -0.7837    1.0566 C   0  0  0  0  0  0  0  0  0  0  0  0
   -0.1330   -0.4550    0.7312 C   0  0  0  0  0  0  0  0  0  0  0  0
    0.4454    0.7372    1.1896 C   0  0  0  0  0  0  0  0  0  0  0  0
    1.7763    1.0444    0.8920 C   0  0  0  0  0  0  0  0  0  0  0  0
    0.6457   -1.3351   -0.0319 C   0  0  0  0  0  0  0  0  0  0  0  0
    1.9763   -1.0312   -0.3311 C   0  0  0  0  0  0  0  0  0  0  0  0
    2.5469    0.1597    0.1303 C   0  0  0  0  0  0  0  0  0  0  0  0
    3.9618    0.4408   -0.2121 C   0  0  0  0  0  0  0  0  0  0  0  0
    4.6961   -0.2782   -0.8646 O   0  0  0  0  0  0  0  0  0  0  0  0
    4.3971    1.6144    0.2807 O   0  0  0  0  0  0  0  0  0  0  0  0
   -2.9734    2.2440   -1.7293 H   0  0  0  0  0  0  0  0  0  0  0  0
   -3.6033   -0.7243    0.3277 H   0  0  0  0  0  0  0  0  0  0  0  0
   -2.7869   -2.2244   -1.1267 H   0  0  0  0  0  0  0  0  0  0  0  0
   -2.9054   -0.8617   -2.0298 H   0  0  0  0  0  0  0  0  0  0  0  0
   -1.8606   -0.2428    1.9692 H   0  0  0  0  0  0  0  0  0  0  0  0
   -1.6344   -1.8470    1.3269 H   0  0  0  0  0  0  0  0  0  0  0  0
   -0.1393    1.4420    1.7789 H   0  0  0  0  0  0  0  0  0  0  0  0
    2.1987    1.9768    1.2579 H   0  0  0  0  0  0  0  0  0  0  0  0
    0.2161   -2.2615   -0.4079 H   0  0  0  0  0  0  0  0  0  0  0  0
    2.5624   -1.7261   -0.9289 H   0  0  0  0  0  0  0  0  0  0  0  0
    5.3281    1.6611   -0.0210 H   0  0  0  0  0  0  0  0  0  0  0  0
  1  2  2  0
  2  3  1  0
  2  4  1  0
  4  5  1  0
  4  6  1  0
  6  7  1  0
  7  8  2  0
  8  9  1  0
  7 10  1  0
 10 11  2  0
 11 12  1  0
 12 13  1  0
 13 14  2  0
 13 15  1  0
 12  9  2  0
  3 16  1  0
  4 17  1  1
  5 18  1  0
  5 19  1  0
  6 20  1  0
  6 21  1  0
  8 22  1  0
  9 23  1  0
 10 24  1  0
 11 25  1  0
 15 26  1  0
M  END
>  <Name>  (185) 
UB65_pCF

>  <canvasUID>  (185) 
197

>  <MW>  (185) 
209.1986

>  <AlogP>  (185) 
0.453

>  <HBA>  (185) 
0

>  <HBD>  (185) 
0

>  <RB>  (185) 
4

>  <PSA>  (185) 
100.62

>  <Estate>  (185) 
49.501

>  <Polar>  (185) 
23.835

>  <Chirality>  (185) 
[(3, 'S')]

$$$$

     RDKit          3D

 32 32  0  0  0  0  0  0  0  0999 V2000
   -4.9371   -0.8842   -1.2332 O   0  0  0  0  0  0  0  0  0  0  0  0
   -4.5840    0.1044   -0.6105 C   0  0  0  0  0  0  0  0  0  0  0  0
   -5.5068    1.0189   -0.2290 O   0  0  0  0  0  0  0  0  0  0  0  0
   -3.1467    0.4865   -0.2219 C   0  0  1  0  0  0  0  0  0  0  0  0
   -3.1552    1.5238    0.8478 N   0  0  0  0  0  0  0  0  0  0  0  0
   -2.3735   -0.7710    0.2151 C   0  0  0  0  0  0  0  0  0  0  0  0
   -0.8743   -0.6281    0.0820 C   0  0  0  0  0  0  0  0  0  0  0  0
   -0.2069   -1.1676   -1.0239 C   0  0  0  0  0  0  0  0  0  0  0  0
    1.1781   -1.0322   -1.1543 C   0  0  0  0  0  0  0  0  0  0  0  0
   -0.1308    0.0557    1.0494 C   0  0  0  0  0  0  0  0  0  0  0  0
    1.2538    0.1920    0.9181 C   0  0  0  0  0  0  0  0  0  0  0  0
    1.9274   -0.3514   -0.1848 C   0  0  0  0  0  0  0  0  0  0  0  0
    3.4302   -0.2148   -0.3494 C   0  0  0  0  0  0  0  0  0  0  0  0
    3.8501    1.2510   -0.4834 C   0  0  0  0  0  0  0  0  0  0  0  0
    4.1863   -0.8963    0.7939 C   0  0  0  0  0  0  0  0  0  0  0  0
   -6.3508    0.6546   -0.5707 H   0  0  0  0  0  0  0  0  0  0  0  0
   -2.6948    0.9309   -1.1167 H   0  0  0  0  0  0  0  0  0  0  0  0
   -3.6176    1.1348    1.6699 H   0  0  0  0  0  0  0  0  0  0  0  0
   -3.7860    2.2671    0.5349 H   0  0  0  0  0  0  0  0  0  0  0  0
   -2.6879   -1.6410   -0.3761 H   0  0  0  0  0  0  0  0  0  0  0  0
   -2.6212   -1.0385    1.2516 H   0  0  0  0  0  0  0  0  0  0  0  0
   -0.7591   -1.7007   -1.7948 H   0  0  0  0  0  0  0  0  0  0  0  0
    1.6675   -1.4644   -2.0243 H   0  0  0  0  0  0  0  0  0  0  0  0
   -0.6276    0.4977    1.9105 H   0  0  0  0  0  0  0  0  0  0  0  0
    1.7997    0.7330    1.6873 H   0  0  0  0  0  0  0  0  0  0  0  0
    3.7271   -0.7210   -1.2776 H   0  0  0  0  0  0  0  0  0  0  0  0
    3.3190    1.7363   -1.3100 H   0  0  0  0  0  0  0  0  0  0  0  0
    3.6418    1.8221    0.4279 H   0  0  0  0  0  0  0  0  0  0  0  0
    4.9241    1.3268   -0.6848 H   0  0  0  0  0  0  0  0  0  0  0  0
    5.2665   -0.8617    0.6152 H   0  0  0  0  0  0  0  0  0  0  0  0
    3.8949   -1.9488    0.8833 H   0  0  0  0  0  0  0  0  0  0  0  0
    3.9937   -0.4136    1.7582 H   0  0  0  0  0  0  0  0  0  0  0  0
  1  2  2  0
  2  3  1  0
  2  4  1  0
  4  5  1  0
  4  6  1  0
  6  7  1  0
  7  8  2  0
  8  9  1  0
  7 10  1  0
 10 11  2  0
 11 12  1  0
 12 13  1  0
 13 14  1  0
 13 15  1  0
 12  9  2  0
  3 16  1  0
  4 17  1  6
  5 18  1  0
  5 19  1  0
  6 20  1  0
  6 21  1  0
  8 22  1  0
  9 23  1  0
 10 24  1  0
 11 25  1  0
 13 26  1  0
 14 27  1  0
 14 28  1  0
 14 29  1  0
 15 30  1  0
 15 31  1  0
 15 32  1  0
M  END
>  <Name>  (186) 
UB66_pIF

>  <canvasUID>  (186) 
198

>  <MW>  (186) 
207.2689

>  <AlogP>  (186) 
2.0428

>  <HBA>  (186) 
0

>  <HBD>  (186) 
0

>  <RB>  (186) 
4

>  <PSA>  (186) 
63.32

>  <Estate>  (186) 
39.167

>  <Polar>  (186) 
26.782

>  <Chirality>  (186) 
[(3, 'S')]

$$$$

     RDKit          3D

 42 42  0  0  0  0  0  0  0  0999 V2000
    5.0164    0.0268   -2.9133 O   0  0  0  0  0  0  0  0  0  0  0  0
    4.8016    0.4401   -1.7834 C   0  0  0  0  0  0  0  0  0  0  0  0
    4.1602    1.6179   -1.6104 O   0  0  0  0  0  0  0  0  0  0  0  0
    5.1408   -0.2954   -0.4828 C   0  0  1  0  0  0  0  0  0  0  0  0
    5.0283    0.5974    0.6955 N   0  0  0  0  0  0  0  0  0  0  0  0
    4.3068   -1.5851   -0.3655 C   0  0  0  0  0  0  0  0  0  0  0  0
    2.8125   -1.3834   -0.2278 C   0  0  0  0  0  0  0  0  0  0  0  0
    2.2163   -1.2732    1.0344 C   0  0  0  0  0  0  0  0  0  0  0  0
    0.8355   -1.0800    1.1607 C   0  0  0  0  0  0  0  0  0  0  0  0
    0.0330   -0.9958    0.0237 C   0  0  0  0  0  0  0  0  0  0  0  0
    0.6225   -1.1121   -1.2365 C   0  0  0  0  0  0  0  0  0  0  0  0
    1.9998   -1.3049   -1.3642 C   0  0  0  0  0  0  0  0  0  0  0  0
   -1.3212   -0.8066    0.0043 O   0  0  0  0  0  0  0  0  0  0  0  0
   -1.9792   -0.6695    1.2629 C   0  0  0  0  0  0  0  0  0  0  0  0
   -3.4866   -0.4821    1.0225 C   0  0  0  0  0  0  0  0  0  0  0  0
   -3.9013    0.9008    0.4465 N   0  0  0  0  0  4  0  0  0  0  0  0
   -3.2069    1.1871   -0.8832 C   0  0  0  0  0  0  0  0  0  0  0  0
   -5.4111    0.8641    0.1971 C   0  0  0  0  0  0  0  0  0  0  0  0
   -3.6010    2.0264    1.4258 C   0  0  0  0  0  0  0  0  0  0  0  0
    4.0782    1.9694   -2.5209 H   0  0  0  0  0  0  0  0  0  0  0  0
    6.1999   -0.5696   -0.5568 H   0  0  0  0  0  0  0  0  0  0  0  0
    4.1560    1.1226    0.6041 H   0  0  0  0  0  0  0  0  0  0  0  0
    4.9618    0.0447    1.5457 H   0  0  0  0  0  0  0  0  0  0  0  0
    4.6630   -2.1705    0.4930 H   0  0  0  0  0  0  0  0  0  0  0  0
    4.4915   -2.2211   -1.2420 H   0  0  0  0  0  0  0  0  0  0  0  0
    2.8239   -1.3459    1.9347 H   0  0  0  0  0  0  0  0  0  0  0  0
    0.4304   -1.0091    2.1643 H   0  0  0  0  0  0  0  0  0  0  0  0
    0.0109   -1.0615   -2.1338 H   0  0  0  0  0  0  0  0  0  0  0  0
    2.4315   -1.4006   -2.3598 H   0  0  0  0  0  0  0  0  0  0  0  0
   -1.5658    0.1690    1.8317 H   0  0  0  0  0  0  0  0  0  0  0  0
   -1.8465   -1.5943    1.8376 H   0  0  0  0  0  0  0  0  0  0  0  0
   -4.0312   -0.5940    1.9669 H   0  0  0  0  0  0  0  0  0  0  0  0
   -3.8486   -1.2307    0.3078 H   0  0  0  0  0  0  0  0  0  0  0  0
   -2.1505    1.3933   -0.6965 H   0  0  0  0  0  0  0  0  0  0  0  0
   -3.3384    0.3211   -1.5379 H   0  0  0  0  0  0  0  0  0  0  0  0
   -3.6714    2.0727   -1.3282 H   0  0  0  0  0  0  0  0  0  0  0  0
   -5.9123    0.6576    1.1474 H   0  0  0  0  0  0  0  0  0  0  0  0
   -5.7241    1.8365   -0.1949 H   0  0  0  0  0  0  0  0  0  0  0  0
   -5.6225    0.0743   -0.5298 H   0  0  0  0  0  0  0  0  0  0  0  0
   -4.0716    1.7867    2.3835 H   0  0  0  0  0  0  0  0  0  0  0  0
   -4.0119    2.9561    1.0205 H   0  0  0  0  0  0  0  0  0  0  0  0
   -2.5186    2.1212    1.5399 H   0  0  0  0  0  0  0  0  0  0  0  0
  1  2  2  0
  2  3  1  0
  2  4  1  0
  4  5  1  0
  4  6  1  0
  6  7  1  0
  7  8  2  0
  8  9  1  0
  9 10  2  0
 10 11  1  0
 11 12  2  0
 10 13  1  0
 13 14  1  0
 14 15  1  0
 15 16  1  0
 16 17  1  0
 16 18  1  0
 16 19  1  0
 12  7  1  0
  3 20  1  0
  4 21  1  6
  5 22  1  0
  5 23  1  0
  6 24  1  0
  6 25  1  0
  8 26  1  0
  9 27  1  0
 11 28  1  0
 12 29  1  0
 14 30  1  0
 14 31  1  0
 15 32  1  0
 15 33  1  0
 17 34  1  0
 17 35  1  0
 17 36  1  0
 18 37  1  0
 18 38  1  0
 18 39  1  0
 19 40  1  0
 19 41  1  0
 19 42  1  0
M  CHG  1  16   1
M  END
>  <Name>  (187) 
UB67_O2QY

>  <canvasUID>  (187) 
199

>  <MW>  (187) 
267.344

>  <AlogP>  (187) 
-0.3839

>  <HBA>  (187) 
1

>  <HBD>  (187) 
0

>  <RB>  (187) 
7

>  <PSA>  (187) 
72.55

>  <Estate>  (187) 
47.834

>  <Polar>  (187) 
32.827

>  <Chirality>  (187) 
[(3, 'S')]

$$$$

     RDKit          3D

 45 45  0  0  0  0  0  0  0  0999 V2000
    5.2319   -2.0389    1.6536 O   0  0  0  0  0  0  0  0  0  0  0  0
    5.9207   -1.0473    1.4810 C   0  0  0  0  0  0  0  0  0  0  0  0
    6.9251   -0.7640    2.3481 O   0  0  0  0  0  0  0  0  0  0  0  0
    5.7948    0.0208    0.3819 C   0  0  1  0  0  0  0  0  0  0  0  0
    7.1449    0.3074   -0.1653 N   0  0  0  0  0  0  0  0  0  0  0  0
    4.8646   -0.4321   -0.7551 C   0  0  0  0  0  0  0  0  0  0  0  0
    3.3970   -0.2319   -0.4406 C   0  0  0  0  0  0  0  0  0  0  0  0
    2.8031    1.0285   -0.5877 C   0  0  0  0  0  0  0  0  0  0  0  0
    1.4479    1.2203   -0.2939 C   0  0  0  0  0  0  0  0  0  0  0  0
    0.6701    0.1522    0.1513 C   0  0  0  0  0  0  0  0  0  0  0  0
    1.2610   -1.1026    0.3083 C   0  0  0  0  0  0  0  0  0  0  0  0
    2.6118   -1.2963    0.0122 C   0  0  0  0  0  0  0  0  0  0  0  0
   -0.6593    0.2006    0.4679 O   0  0  0  0  0  0  0  0  0  0  0  0
   -1.3436    1.4231    0.2090 C   0  0  0  0  0  0  0  0  0  0  0  0
   -2.8214    1.2075    0.5410 C   0  0  0  0  0  0  0  0  0  0  0  0
   -3.3993    0.0621   -0.2927 C   0  0  0  0  0  0  0  0  0  0  0  0
   -4.8898   -0.2250   -0.0083 N   0  0  0  0  0  4  0  0  0  0  0  0
   -5.1041   -0.6594    1.4377 C   0  0  0  0  0  0  0  0  0  0  0  0
   -5.3174   -1.3818   -0.9197 C   0  0  0  0  0  0  0  0  0  0  0  0
   -5.7681    0.9780   -0.3209 C   0  0  0  0  0  0  0  0  0  0  0  0
    6.9185   -1.5230    2.9686 H   0  0  0  0  0  0  0  0  0  0  0  0
    5.4148    0.9309    0.8614 H   0  0  0  0  0  0  0  0  0  0  0  0
    7.7734    0.4586    0.6295 H   0  0  0  0  0  0  0  0  0  0  0  0
    7.1223    1.1856   -0.6805 H   0  0  0  0  0  0  0  0  0  0  0  0
    5.0489   -1.4824   -1.0173 H   0  0  0  0  0  0  0  0  0  0  0  0
    5.0775    0.1395   -1.6694 H   0  0  0  0  0  0  0  0  0  0  0  0
    3.3943    1.8734   -0.9367 H   0  0  0  0  0  0  0  0  0  0  0  0
    1.0412    2.2178   -0.4203 H   0  0  0  0  0  0  0  0  0  0  0  0
    0.6729   -1.9432    0.6668 H   0  0  0  0  0  0  0  0  0  0  0  0
    3.0488   -2.2848    0.1471 H   0  0  0  0  0  0  0  0  0  0  0  0
   -1.2448    1.7048   -0.8465 H   0  0  0  0  0  0  0  0  0  0  0  0
   -0.9469    2.2214    0.8471 H   0  0  0  0  0  0  0  0  0  0  0  0
   -3.3594    2.1426    0.3592 H   0  0  0  0  0  0  0  0  0  0  0  0
   -2.9023    0.9704    1.6070 H   0  0  0  0  0  0  0  0  0  0  0  0
   -3.3223    0.2928   -1.3621 H   0  0  0  0  0  0  0  0  0  0  0  0
   -2.8655   -0.8761   -0.1016 H   0  0  0  0  0  0  0  0  0  0  0  0
   -6.1435   -0.9831    1.5500 H   0  0  0  0  0  0  0  0  0  0  0  0
   -4.4206   -1.4845    1.6572 H   0  0  0  0  0  0  0  0  0  0  0  0
   -4.9123    0.1912    2.0963 H   0  0  0  0  0  0  0  0  0  0  0  0
   -4.6978   -2.2529   -0.6869 H   0  0  0  0  0  0  0  0  0  0  0  0
   -6.3722   -1.6026   -0.7301 H   0  0  0  0  0  0  0  0  0  0  0  0
   -5.1738   -1.0729   -1.9594 H   0  0  0  0  0  0  0  0  0  0  0  0
   -5.5540    1.3072   -1.3417 H   0  0  0  0  0  0  0  0  0  0  0  0
   -6.8156    0.6750   -0.2283 H   0  0  0  0  0  0  0  0  0  0  0  0
   -5.5516    1.7727    0.3972 H   0  0  0  0  0  0  0  0  0  0  0  0
  1  2  2  0
  2  3  1  0
  2  4  1  0
  4  5  1  0
  4  6  1  0
  6  7  1  0
  7  8  2  0
  8  9  1  0
  9 10  2  0
 10 11  1  0
 11 12  2  0
 10 13  1  0
 13 14  1  0
 14 15  1  0
 15 16  1  0
 16 17  1  0
 17 18  1  0
 17 19  1  0
 17 20  1  0
 12  7  1  0
  3 21  1  0
  4 22  1  1
  5 23  1  0
  5 24  1  0
  6 25  1  0
  6 26  1  0
  8 27  1  0
  9 28  1  0
 11 29  1  0
 12 30  1  0
 14 31  1  0
 14 32  1  0
 15 33  1  0
 15 34  1  0
 16 35  1  0
 16 36  1  0
 18 37  1  0
 18 38  1  0
 18 39  1  0
 19 40  1  0
 19 41  1  0
 19 42  1  0
 20 43  1  0
 20 44  1  0
 20 45  1  0
M  CHG  1  17   1
M  END
>  <Name>  (188) 
UB68_O3QY

>  <canvasUID>  (188) 
200

>  <MW>  (188) 
281.3706

>  <AlogP>  (188) 
-0.3215

>  <HBA>  (188) 
1

>  <HBD>  (188) 
0

>  <RB>  (188) 
8

>  <PSA>  (188) 
72.55

>  <Estate>  (188) 
49.334

>  <Polar>  (188) 
34.662

>  <Chirality>  (188) 
[(3, 'S')]

$$$$

     RDKit          3D

 48 48  0  0  0  0  0  0  0  0999 V2000
    5.9138    1.1564   -1.6219 O   0  0  0  0  0  0  0  0  0  0  0  0
    6.2773    0.5866   -0.6057 C   0  0  0  0  0  0  0  0  0  0  0  0
    7.1474    1.1880    0.2403 O   0  0  0  0  0  0  0  0  0  0  0  0
    5.8214   -0.7916   -0.1166 C   0  0  1  0  0  0  0  0  0  0  0  0
    6.9930   -1.5506    0.3873 N   0  0  0  0  0  0  0  0  0  0  0  0
    4.7469   -0.6401    0.9732 C   0  0  0  0  0  0  0  0  0  0  0  0
    3.4520   -0.0459    0.4676 C   0  0  0  0  0  0  0  0  0  0  0  0
    3.0834    1.2566    0.8182 C   0  0  0  0  0  0  0  0  0  0  0  0
    1.8999    1.8109    0.3251 C   0  0  0  0  0  0  0  0  0  0  0  0
    1.0677    1.0814   -0.5267 C   0  0  0  0  0  0  0  0  0  0  0  0
    1.4257   -0.2208   -0.8709 C   0  0  0  0  0  0  0  0  0  0  0  0
    2.6097   -0.7808   -0.3762 C   0  0  0  0  0  0  0  0  0  0  0  0
   -0.0512    1.7520   -0.9324 O   0  0  0  0  0  0  0  0  0  0  0  0
   -0.8999    1.1556   -1.9100 C   0  0  0  0  0  0  0  0  0  0  0  0
   -1.9811    0.3020   -1.2384 C   0  0  0  0  0  0  0  0  0  0  0  0
   -2.8746    1.1329   -0.3124 C   0  0  0  0  0  0  0  0  0  0  0  0
   -3.6426    0.3523    0.7581 C   0  0  0  0  0  0  0  0  0  0  0  0
   -4.7825   -0.5610    0.2729 N   0  0  0  0  0  4  0  0  0  0  0  0
   -4.2654   -1.8795   -0.2884 C   0  0  0  0  0  0  0  0  0  0  0  0
   -5.6449   -0.8990    1.5015 C   0  0  0  0  0  0  0  0  0  0  0  0
   -5.6766    0.1242   -0.7506 C   0  0  0  0  0  0  0  0  0  0  0  0
    7.3793    2.0194   -0.2254 H   0  0  0  0  0  0  0  0  0  0  0  0
    5.4316   -1.3378   -0.9827 H   0  0  0  0  0  0  0  0  0  0  0  0
    6.6861   -2.3516    0.9347 H   0  0  0  0  0  0  0  0  0  0  0  0
    7.5133   -0.9415    1.0249 H   0  0  0  0  0  0  0  0  0  0  0  0
    4.5124   -1.6216    1.4075 H   0  0  0  0  0  0  0  0  0  0  0  0
    5.1310   -0.0318    1.8031 H   0  0  0  0  0  0  0  0  0  0  0  0
    3.7182    1.8584    1.4655 H   0  0  0  0  0  0  0  0  0  0  0  0
    1.6354    2.8303    0.5965 H   0  0  0  0  0  0  0  0  0  0  0  0
    0.8186   -0.8326   -1.5277 H   0  0  0  0  0  0  0  0  0  0  0  0
    2.8760   -1.7954   -0.6669 H   0  0  0  0  0  0  0  0  0  0  0  0
   -0.3398    0.5925   -2.6646 H   0  0  0  0  0  0  0  0  0  0  0  0
   -1.3823    1.9785   -2.4509 H   0  0  0  0  0  0  0  0  0  0  0  0
   -2.5860   -0.1540   -2.0272 H   0  0  0  0  0  0  0  0  0  0  0  0
   -1.5101   -0.5001   -0.6605 H   0  0  0  0  0  0  0  0  0  0  0  0
   -3.5509    1.7535   -0.9107 H   0  0  0  0  0  0  0  0  0  0  0  0
   -2.2455    1.8453    0.2369 H   0  0  0  0  0  0  0  0  0  0  0  0
   -2.9644   -0.2653    1.3589 H   0  0  0  0  0  0  0  0  0  0  0  0
   -4.1066    1.0844    1.4311 H   0  0  0  0  0  0  0  0  0  0  0  0
   -3.7801   -1.7003   -1.2467 H   0  0  0  0  0  0  0  0  0  0  0  0
   -5.1182   -2.5489   -0.4405 H   0  0  0  0  0  0  0  0  0  0  0  0
   -3.5653   -2.3154    0.4299 H   0  0  0  0  0  0  0  0  0  0  0  0
   -6.4494   -1.5716    1.1890 H   0  0  0  0  0  0  0  0  0  0  0  0
   -5.0063   -1.3843    2.2457 H   0  0  0  0  0  0  0  0  0  0  0  0
   -6.0636    0.0310    1.8978 H   0  0  0  0  0  0  0  0  0  0  0  0
   -5.1122    0.2648   -1.6759 H   0  0  0  0  0  0  0  0  0  0  0  0
   -6.5403   -0.5200   -0.9426 H   0  0  0  0  0  0  0  0  0  0  0  0
   -6.0002    1.0847   -0.3395 H   0  0  0  0  0  0  0  0  0  0  0  0
  1  2  2  0
  2  3  1  0
  2  4  1  0
  4  5  1  0
  4  6  1  0
  6  7  1  0
  7  8  2  0
  8  9  1  0
  9 10  2  0
 10 11  1  0
 11 12  2  0
 10 13  1  0
 13 14  1  0
 14 15  1  0
 15 16  1  0
 16 17  1  0
 17 18  1  0
 18 19  1  0
 18 20  1  0
 18 21  1  0
 12  7  1  0
  3 22  1  0
  4 23  1  6
  5 24  1  0
  5 25  1  0
  6 26  1  0
  6 27  1  0
  8 28  1  0
  9 29  1  0
 11 30  1  0
 12 31  1  0
 14 32  1  0
 14 33  1  0
 15 34  1  0
 15 35  1  0
 16 36  1  0
 16 37  1  0
 17 38  1  0
 17 39  1  0
 19 40  1  0
 19 41  1  0
 19 42  1  0
 20 43  1  0
 20 44  1  0
 20 45  1  0
 21 46  1  0
 21 47  1  0
 21 48  1  0
M  CHG  1  18   1
M  END
>  <Name>  (189) 
UB69_O4QY

>  <canvasUID>  (189) 
201

>  <MW>  (189) 
295.3972

>  <AlogP>  (189) 
0.2585

>  <HBA>  (189) 
1

>  <HBD>  (189) 
0

>  <RB>  (189) 
9

>  <PSA>  (189) 
72.55

>  <Estate>  (189) 
50.834

>  <Polar>  (189) 
36.497

>  <Chirality>  (189) 
[(3, 'S')]

$$$$

     RDKit          3D

 51 51  0  0  0  0  0  0  0  0999 V2000
    7.0547    1.8857   -0.6270 O   0  0  0  0  0  0  0  0  0  0  0  0
    7.3850    0.7174   -0.7416 C   0  0  0  0  0  0  0  0  0  0  0  0
    8.3258    0.3698   -1.6566 O   0  0  0  0  0  0  0  0  0  0  0  0
    6.8394   -0.5073    0.0109 C   0  0  1  0  0  0  0  0  0  0  0  0
    7.9823   -1.3435    0.4592 N   0  0  0  0  0  0  0  0  0  0  0  0
    5.9876   -0.1034    1.2249 C   0  0  0  0  0  0  0  0  0  0  0  0
    4.5649    0.2613    0.8582 C   0  0  0  0  0  0  0  0  0  0  0  0
    4.1797    1.5992    0.7359 C   0  0  0  0  0  0  0  0  0  0  0  0
    2.8659    1.9274    0.3944 C   0  0  0  0  0  0  0  0  0  0  0  0
    1.9136    0.9311    0.1697 C   0  0  0  0  0  0  0  0  0  0  0  0
    2.2921   -0.4051    0.2888 C   0  0  0  0  0  0  0  0  0  0  0  0
    3.6092   -0.7374    0.6297 C   0  0  0  0  0  0  0  0  0  0  0  0
    0.6704    1.4019   -0.1449 O   0  0  0  0  0  0  0  0  0  0  0  0
   -0.3767    0.4758   -0.4210 C   0  0  0  0  0  0  0  0  0  0  0  0
   -1.0777    0.0601    0.8730 C   0  0  0  0  0  0  0  0  0  0  0  0
   -2.3147   -0.8127    0.6510 C   0  0  0  0  0  0  0  0  0  0  0  0
   -3.4961   -0.0389    0.0514 C   0  0  0  0  0  0  0  0  0  0  0  0
   -4.7451   -0.9219   -0.0088 C   0  0  0  0  0  0  0  0  0  0  0  0
   -5.9849   -0.2054   -0.5758 N   0  0  0  0  0  4  0  0  0  0  0  0
   -7.1423   -1.2113   -0.5775 C   0  0  0  0  0  0  0  0  0  0  0  0
   -5.7603    0.2619   -2.0095 C   0  0  0  0  0  0  0  0  0  0  0  0
   -6.3917    0.9823    0.2910 C   0  0  0  0  0  0  0  0  0  0  0  0
    8.6003    1.2299   -2.0393 H   0  0  0  0  0  0  0  0  0  0  0  0
    6.2478   -1.0874   -0.7078 H   0  0  0  0  0  0  0  0  0  0  0  0
    7.6446   -2.2704    0.7122 H   0  0  0  0  0  0  0  0  0  0  0  0
    8.6023   -1.4729   -0.3462 H   0  0  0  0  0  0  0  0  0  0  0  0
    5.9306   -0.9348    1.9417 H   0  0  0  0  0  0  0  0  0  0  0  0
    6.4551    0.7249    1.7737 H   0  0  0  0  0  0  0  0  0  0  0  0
    4.8999    2.3994    0.9002 H   0  0  0  0  0  0  0  0  0  0  0  0
    2.5866    2.9746    0.3035 H   0  0  0  0  0  0  0  0  0  0  0  0
    1.5931   -1.2183    0.1331 H   0  0  0  0  0  0  0  0  0  0  0  0
    3.8827   -1.7865    0.7237 H   0  0  0  0  0  0  0  0  0  0  0  0
   -1.0836    1.0163   -1.0594 H   0  0  0  0  0  0  0  0  0  0  0  0
   -0.0364   -0.3808   -1.0138 H   0  0  0  0  0  0  0  0  0  0  0  0
   -0.3709   -0.4908    1.5046 H   0  0  0  0  0  0  0  0  0  0  0  0
   -1.3452    0.9544    1.4500 H   0  0  0  0  0  0  0  0  0  0  0  0
   -2.6179   -1.2250    1.6217 H   0  0  0  0  0  0  0  0  0  0  0  0
   -2.0598   -1.6650    0.0096 H   0  0  0  0  0  0  0  0  0  0  0  0
   -3.2285    0.3049   -0.9519 H   0  0  0  0  0  0  0  0  0  0  0  0
   -3.6821    0.8467    0.6673 H   0  0  0  0  0  0  0  0  0  0  0  0
   -5.0153   -1.2732    0.9946 H   0  0  0  0  0  0  0  0  0  0  0  0
   -4.5646   -1.7963   -0.6458 H   0  0  0  0  0  0  0  0  0  0  0  0
   -7.3163   -1.5390    0.4520 H   0  0  0  0  0  0  0  0  0  0  0  0
   -6.8619   -2.0592   -1.2099 H   0  0  0  0  0  0  0  0  0  0  0  0
   -8.0334   -0.7167   -0.9758 H   0  0  0  0  0  0  0  0  0  0  0  0
   -6.7092    0.6402   -2.4025 H   0  0  0  0  0  0  0  0  0  0  0  0
   -5.4142   -0.5907   -2.6006 H   0  0  0  0  0  0  0  0  0  0  0  0
   -5.0178    1.0634   -2.0103 H   0  0  0  0  0  0  0  0  0  0  0  0
   -6.4877    0.6388    1.3253 H   0  0  0  0  0  0  0  0  0  0  0  0
   -5.6300    1.7613    0.2078 H   0  0  0  0  0  0  0  0  0  0  0  0
   -7.3492    1.3653   -0.0754 H   0  0  0  0  0  0  0  0  0  0  0  0
  1  2  2  0
  2  3  1  0
  2  4  1  0
  4  5  1  0
  4  6  1  0
  6  7  1  0
  7  8  2  0
  8  9  1  0
  9 10  2  0
 10 11  1  0
 11 12  2  0
 10 13  1  0
 13 14  1  0
 14 15  1  0
 15 16  1  0
 16 17  1  0
 17 18  1  0
 18 19  1  0
 19 20  1  0
 19 21  1  0
 19 22  1  0
 12  7  1  0
  3 23  1  0
  4 24  1  6
  5 25  1  0
  5 26  1  0
  6 27  1  0
  6 28  1  0
  8 29  1  0
  9 30  1  0
 11 31  1  0
 12 32  1  0
 14 33  1  0
 14 34  1  0
 15 35  1  0
 15 36  1  0
 16 37  1  0
 16 38  1  0
 17 39  1  0
 17 40  1  0
 18 41  1  0
 18 42  1  0
 20 43  1  0
 20 44  1  0
 20 45  1  0
 21 46  1  0
 21 47  1  0
 21 48  1  0
 22 49  1  0
 22 50  1  0
 22 51  1  0
M  CHG  1  19   1
M  END
>  <Name>  (190) 
UB70_O5QY

>  <canvasUID>  (190) 
202

>  <MW>  (190) 
309.4238

>  <AlogP>  (190) 
0.7147

>  <HBA>  (190) 
1

>  <HBD>  (190) 
0

>  <RB>  (190) 
10

>  <PSA>  (190) 
72.55

>  <Estate>  (190) 
52.334

>  <Polar>  (190) 
38.332

>  <Chirality>  (190) 
[(3, 'S')]

$$$$

     RDKit          3D

 45 45  0  0  0  0  0  0  0  0999 V2000
    5.0224    0.1573    2.9680 O   0  0  0  0  0  0  0  0  0  0  0  0
    5.6804   -0.2073    2.0071 C   0  0  0  0  0  0  0  0  0  0  0  0
    6.3507   -1.3840    2.0502 O   0  0  0  0  0  0  0  0  0  0  0  0
    5.8499    0.5301    0.6760 C   0  0  1  0  0  0  0  0  0  0  0  0
    7.2934    0.5829    0.3266 N   0  0  0  0  0  0  0  0  0  0  0  0
    5.0409   -0.1675   -0.4299 C   0  0  0  0  0  0  0  0  0  0  0  0
    3.5461   -0.0829   -0.2300 C   0  0  0  0  0  0  0  0  0  0  0  0
    2.8640    1.1202   -0.4523 C   0  0  0  0  0  0  0  0  0  0  0  0
    1.4802    1.2036   -0.2596 C   0  0  0  0  0  0  0  0  0  0  0  0
    0.7610    0.0844    0.1571 C   0  0  0  0  0  0  0  0  0  0  0  0
    1.4386   -1.1159    0.3784 C   0  0  0  0  0  0  0  0  0  0  0  0
    2.8197   -1.2029    0.1884 C   0  0  0  0  0  0  0  0  0  0  0  0
   -0.5865    0.0286    0.3812 O   0  0  0  0  0  0  0  0  0  0  0  0
   -1.3289    1.2316    0.1887 C   0  0  0  0  0  0  0  0  0  0  0  0
   -2.8025    0.9603    0.5023 C   0  0  0  0  0  0  0  0  0  0  0  0
   -3.4193   -0.0558   -0.4706 C   0  0  0  0  0  0  0  0  0  0  0  0
   -4.9249   -0.3669   -0.2545 C   0  0  0  0  0  0  0  0  0  0  0  0
   -5.1758   -0.9595    1.1419 C   0  0  0  0  0  0  0  0  0  0  0  0
   -5.3564   -1.4041   -1.3101 C   0  0  0  0  0  0  0  0  0  0  0  0
   -5.7859    0.8946   -0.4317 C   0  0  0  0  0  0  0  0  0  0  0  0
    6.1738   -1.7038    2.9600 H   0  0  0  0  0  0  0  0  0  0  0  0
    5.5105    1.5617    0.8214 H   0  0  0  0  0  0  0  0  0  0  0  0
    7.6605   -0.3710    0.3721 H   0  0  0  0  0  0  0  0  0  0  0  0
    7.4019    0.8896   -0.6381 H   0  0  0  0  0  0  0  0  0  0  0  0
    5.3397   -1.2209   -0.5162 H   0  0  0  0  0  0  0  0  0  0  0  0
    5.2712    0.2850   -1.4041 H   0  0  0  0  0  0  0  0  0  0  0  0
    3.4038    2.0070   -0.7779 H   0  0  0  0  0  0  0  0  0  0  0  0
    0.9977    2.1576   -0.4425 H   0  0  0  0  0  0  0  0  0  0  0  0
    0.8844   -1.9923    0.7056 H   0  0  0  0  0  0  0  0  0  0  0  0
    3.3176   -2.1519    0.3731 H   0  0  0  0  0  0  0  0  0  0  0  0
   -1.2335    1.5787   -0.8473 H   0  0  0  0  0  0  0  0  0  0  0  0
   -0.9646    2.0069    0.8735 H   0  0  0  0  0  0  0  0  0  0  0  0
   -3.3451    1.9096    0.4550 H   0  0  0  0  0  0  0  0  0  0  0  0
   -2.8769    0.5775    1.5259 H   0  0  0  0  0  0  0  0  0  0  0  0
   -3.2769    0.3147   -1.4949 H   0  0  0  0  0  0  0  0  0  0  0  0
   -2.8540   -0.9950   -0.4060 H   0  0  0  0  0  0  0  0  0  0  0  0
   -4.5407   -1.8343    1.3197 H   0  0  0  0  0  0  0  0  0  0  0  0
   -6.2188   -1.2782    1.2527 H   0  0  0  0  0  0  0  0  0  0  0  0
   -4.9760   -0.2308    1.9343 H   0  0  0  0  0  0  0  0  0  0  0  0
   -5.2076   -1.0204   -2.3258 H   0  0  0  0  0  0  0  0  0  0  0  0
   -6.4163   -1.6620   -1.2047 H   0  0  0  0  0  0  0  0  0  0  0  0
   -4.7786   -2.3303   -1.2144 H   0  0  0  0  0  0  0  0  0  0  0  0
   -5.5933    1.3715   -1.3992 H   0  0  0  0  0  0  0  0  0  0  0  0
   -6.8539    0.6514   -0.3883 H   0  0  0  0  0  0  0  0  0  0  0  0
   -5.5923    1.6329    0.3531 H   0  0  0  0  0  0  0  0  0  0  0  0
  1  2  2  0
  2  3  1  0
  2  4  1  0
  4  5  1  0
  4  6  1  0
  6  7  1  0
  7  8  2  0
  8  9  1  0
  9 10  2  0
 10 11  1  0
 11 12  2  0
 10 13  1  0
 13 14  1  0
 14 15  1  0
 15 16  1  0
 16 17  1  0
 17 18  1  0
 17 19  1  0
 17 20  1  0
 12  7  1  0
  3 21  1  0
  4 22  1  1
  5 23  1  0
  5 24  1  0
  6 25  1  0
  6 26  1  0
  8 27  1  0
  9 28  1  0
 11 29  1  0
 12 30  1  0
 14 31  1  0
 14 32  1  0
 15 33  1  0
 15 34  1  0
 16 35  1  0
 16 36  1  0
 18 37  1  0
 18 38  1  0
 18 39  1  0
 19 40  1  0
 19 41  1  0
 19 42  1  0
 20 43  1  0
 20 44  1  0
 20 45  1  0
M  END
>  <Name>  (191) 
UB71_O3tBuY

>  <canvasUID>  (191) 
203

>  <MW>  (191) 
279.3746

>  <AlogP>  (191) 
3.0751

>  <HBA>  (191) 
1

>  <HBD>  (191) 
0

>  <RB>  (191) 
8

>  <PSA>  (191) 
72.55

>  <Estate>  (191) 
49.084

>  <Polar>  (191) 
34.759

>  <Chirality>  (191) 
[(3, 'S')]

$$$$

     RDKit          3D

 43 44  0  0  0  0  0  0  0  0999 V2000
    6.0437    1.6926    1.6388 O   0  0  0  0  0  0  0  0  0  0  0  0
    5.8455    1.6956    0.4328 C   0  0  0  0  0  0  0  0  0  0  0  0
    6.8819    1.7738   -0.4352 O   0  0  0  0  0  0  0  0  0  0  0  0
    4.4860    1.5950   -0.2648 C   0  0  1  0  0  0  0  0  0  0  0  0
    4.4184    2.6097   -1.3524 N   0  0  0  0  0  0  0  0  0  0  0  0
    4.2644    0.1786   -0.8186 C   0  0  0  0  0  0  0  0  0  0  0  0
    4.2888   -1.1913    0.3948 S   0  0  0  0  0  0  0  0  0  0  0  0
    2.9298   -0.7333    1.5047 C   0  0  0  0  0  0  0  0  0  0  0  0
    1.6854   -0.7352    0.7949 N   0  0  0  0  0  0  0  0  0  0  0  0
    0.5814   -1.3766    1.2634 C   0  0  0  0  0  0  0  0  0  0  0  0
    0.5274   -2.0829    2.2593 O   0  0  0  0  0  0  0  0  0  0  0  0
   -0.4630   -1.0931    0.4463 O   0  0  0  0  0  0  0  0  0  0  0  0
   -1.7357   -1.6420    0.8432 C   0  0  0  0  0  0  0  0  0  0  0  0
   -1.7915   -3.1059    0.3892 C   0  0  0  0  0  0  0  0  0  0  0  0
   -2.8041   -0.7285    0.2447 C   0  0  0  0  0  0  0  0  0  0  0  0
   -3.8272   -1.2239   -0.5885 C   0  0  0  0  0  0  0  0  0  0  0  0
   -2.8114    0.6732    0.5136 C   0  0  0  0  0  0  0  0  0  0  0  0
   -1.8091    1.2624    1.3869 N   0  0  0  0  0  4  0  0  0  0  0  0
   -1.8746    0.9748    2.5887 O   0  0  0  0  0  1  0  0  0  0  0  0
   -0.9792    2.0193    0.8635 O   0  0  0  0  0  0  0  0  0  0  0  0
   -3.7649    1.5560   -0.0176 C   0  0  0  0  0  0  0  0  0  0  0  0
   -4.7313    1.0062   -0.8249 C   0  0  0  0  0  0  0  0  0  0  0  0
   -4.7621   -0.3408   -1.1007 C   0  0  0  0  0  0  0  0  0  0  0  0
   -5.7433    1.6828   -1.4278 O   0  0  0  0  0  0  0  0  0  0  0  0
   -6.4251    0.6082   -2.1103 C   0  0  0  0  0  0  0  0  0  0  0  0
   -5.8049   -0.6797   -1.9059 O   0  0  0  0  0  0  0  0  0  0  0  0
    7.6671    1.8415    0.1508 H   0  0  0  0  0  0  0  0  0  0  0  0
    3.7106    1.8689    0.4595 H   0  0  0  0  0  0  0  0  0  0  0  0
    5.2737    2.5299   -1.9104 H   0  0  0  0  0  0  0  0  0  0  0  0
    3.6414    2.4097   -1.9803 H   0  0  0  0  0  0  0  0  0  0  0  0
    3.3155    0.1290   -1.3659 H   0  0  0  0  0  0  0  0  0  0  0  0
    5.0486   -0.0569   -1.5496 H   0  0  0  0  0  0  0  0  0  0  0  0
    3.0884    0.2569    1.9399 H   0  0  0  0  0  0  0  0  0  0  0  0
    2.9079   -1.4593    2.3226 H   0  0  0  0  0  0  0  0  0  0  0  0
    1.5248   -0.0827    0.0421 H   0  0  0  0  0  0  0  0  0  0  0  0
   -1.8530   -1.6110    1.9348 H   0  0  0  0  0  0  0  0  0  0  0  0
   -1.6690   -3.1856   -0.6981 H   0  0  0  0  0  0  0  0  0  0  0  0
   -2.7345   -3.5818    0.6781 H   0  0  0  0  0  0  0  0  0  0  0  0
   -0.9762   -3.6903    0.8320 H   0  0  0  0  0  0  0  0  0  0  0  0
   -3.9198   -2.2750   -0.8409 H   0  0  0  0  0  0  0  0  0  0  0  0
   -3.7557    2.6202    0.2005 H   0  0  0  0  0  0  0  0  0  0  0  0
   -6.4366    0.8250   -3.1850 H   0  0  0  0  0  0  0  0  0  0  0  0
   -7.4585    0.5606   -1.7483 H   0  0  0  0  0  0  0  0  0  0  0  0
  1  2  2  0
  2  3  1  0
  2  4  1  0
  4  5  1  0
  4  6  1  0
  6  7  1  0
  7  8  1  0
  8  9  1  0
  9 10  1  0
 10 11  2  0
 10 12  1  0
 12 13  1  0
 13 14  1  0
 13 15  1  0
 15 16  2  0
 15 17  1  0
 17 18  1  0
 18 19  1  0
 18 20  2  0
 17 21  2  0
 21 22  1  0
 22 23  2  0
 22 24  1  0
 24 25  1  0
 25 26  1  0
 23 16  1  0
 26 23  1  0
  3 27  1  0
  4 28  1  1
  5 29  1  0
  5 30  1  0
  6 31  1  0
  6 32  1  0
  8 33  1  0
  8 34  1  0
  9 35  1  0
 13 36  1  0
 14 37  1  0
 14 38  1  0
 14 39  1  0
 16 40  1  0
 21 41  1  0
 25 42  1  0
 25 43  1  0
M  CHG  2  18   1  19  -1
M  END
>  <Name>  (192) 
UB72_PCC3

>  <canvasUID>  (192) 
204

>  <MW>  (192) 
387.3651

>  <AlogP>  (192) 
1.1936

>  <HBA>  (192) 
5

>  <HBD>  (192) 
1

>  <RB>  (192) 
9

>  <PSA>  (192) 
188.55

>  <Estate>  (192) 
79.001

>  <Polar>  (192) 
37.572

>  <Chirality>  (192) 
[(3, 'R')]

$$$$
